version 2
run General-0-20210105-21:45:13-9644
attr configname General
attr datetime 20210105-21:45:13
attr experiment General
attr inifile loRaNetwork_Assignment3_iot.ini
attr iterationvars "$0=\"avg\""
attr iterationvarsf avg-
attr measurement "$0=\"avg\""
attr network LoRaNetworkTest
attr processid 9644
attr repetition 0
attr replication #0
attr resultdir results
attr runnumber 0
attr seedset 0
param **.numberOfGateways 1
param **.loRaGW[0].numUdpApps 1
param **.loRaGW[0].packetForwarder.localPort 2000
param **.loRaGW[0].packetForwarder.destPort 1000
param **.loRaGW[0].packetForwarder.destAddresses "\"networkServer\""
param **.loRaGW[0].packetForwarder.indexNumber 0
param **.loRaGW[1].numUdpApps 1
param **.loRaGW[1].packetForwarder.localPort 2000
param **.loRaGW[1].packetForwarder.destPort 1000
param **.loRaGW[1].packetForwarder.destAddresses "\"networkServer\""
param **.loRaGW[1].packetForwarder.indexNumber 1
param **.networkServer.numUdpApps 1
param **.networkServer.**.evaluateADRinServer false
param **.networkServer.udpApp[0].typename "\"NetworkServerApp\""
param **.networkServer.udpApp[0].destAddresses "\"loRaGW[0]\""
param **.networkServer.udpApp[0].destPort 2000
param **.networkServer.udpApp[0].localPort 1000
param **.networkServer.udpApp[0].adrMethod "\"avg\""
param **.numberOfNodes 15
param **.numberOfPacketsToSend 0
param **.timeToFirstPacket exponential(100s)
param **.timeToNextPacket exponential(100s)
param **.alohaChannelModel false
param **.loRaNodes[*].**.initFromDisplayString false
param **.loRaNodes[*].**.evaluateADRinNode false
param **.loRaNodes[*].**initialLoRaSF 7
param **.loRaNodes[*].**initialLoRaBW "125 kHz"
param **.loRaNodes[*].**initialLoRaCR 4
param **.loRaNodes[*].**initialLoRaTP 7dBm
param **.loRaNodes[*].**.initialX "uniform(0m, 480m)"
param **.loRaNodes[*].**.initialY "uniform(0m, 480m)"
param **.LoRaGWNic.radio.iAmGateway true
param **.loRaGW[*].**.initFromDisplayString false
param **.loRaGW[0].**.initialX 240m
param **.loRaGW[0].**.initialY 240m
param **.loRaNodes[*].LoRaNic.radio.energyConsumerType "\"LoRaEnergyConsumer\""
param **.loRaNodes[*].**.energySourceModule "\"IdealEpEnergyStorage\""
param **.loRaNodes[*].LoRaNic.radio.energyConsumer.configFile "xmldoc(\"energyConsumptionParameters.xml\")"
param **.sigma 0
param **.constraintAreaMinX 0m
param **.constraintAreaMinY 0m
param **.constraintAreaMinZ 0m
param **.constraintAreaMaxX 480m
param **.constraintAreaMaxY 480m
param **.constraintAreaMaxZ 0m
param LoRaNetworkTest.**.radio.separateTransmissionParts false
param LoRaNetworkTest.**.radio.separateReceptionParts false
param **.delayer.config "xmldoc(\"cloudDelays.xml\")"
param **.radio.radioMediumModule "\"LoRaMedium\""
param **.LoRaMedium.pathLossType "\"LoRaLogNormalShadowing\""
param **.minInterferenceTime 0s
param **.displayAddresses false

scalar LoRaNetworkTest.loRaNodes[0].LoRaNic.mac numRetry 0
scalar LoRaNetworkTest.loRaNodes[0].LoRaNic.mac numSentWithoutRetry 0
scalar LoRaNetworkTest.loRaNodes[0].LoRaNic.mac numGivenUp 0
scalar LoRaNetworkTest.loRaNodes[0].LoRaNic.mac numSent 5504
scalar LoRaNetworkTest.loRaNodes[0].LoRaNic.mac numReceived 0
scalar LoRaNetworkTest.loRaNodes[0].LoRaNic.mac numSentBroadcast 0
scalar LoRaNetworkTest.loRaNodes[0].LoRaNic.mac numReceivedBroadcast 0
scalar LoRaNetworkTest.loRaNodes[0].LoRaNic.radio.transmitter LoRaTransmissionCreated:count 4750
attr source LoRaTransmissionCreated
scalar LoRaNetworkTest.loRaNodes[0].LoRaNic.radio.receiver numCollisions 0
scalar LoRaNetworkTest.loRaNodes[0].LoRaNic.radio.receiver rcvBelowSensitivity 1321
scalar LoRaNetworkTest.loRaNodes[0].LoRaNic.radio.receiver LoRaReceptionCollision:count 0
attr source LoRaReceptionCollision
scalar LoRaNetworkTest.loRaNodes[0].LoRaNic.radio.energyConsumer totalEnergyConsumed 387.94039647123
statistic LoRaNetworkTest.loRaNodes[0].LoRaNic.radio symbolErrorRate:histogram
field count 0
field mean nan
field stddev nan
field min nan
field max nan
field sum 0
field sqrsum 0
attr source symbolErrorRate
attr title "Symbol error rate, histogram"
bin	-inf	0
bin	-0.5	0
bin	-0.46666666666667	0
bin	-0.43333333333333	0
bin	-0.4	0
bin	-0.36666666666667	0
bin	-0.33333333333333	0
bin	-0.3	0
bin	-0.26666666666667	0
bin	-0.23333333333333	0
bin	-0.2	0
bin	-0.16666666666667	0
bin	-0.13333333333333	0
bin	-0.1	0
bin	-0.066666666666667	0
bin	-0.033333333333333	0
bin	-6.9388939039072e-018	0
bin	0.033333333333333	0
bin	0.066666666666667	0
bin	0.1	0
bin	0.13333333333333	0
bin	0.16666666666667	0
bin	0.2	0
bin	0.23333333333333	0
bin	0.26666666666667	0
bin	0.3	0
bin	0.33333333333333	0
bin	0.36666666666667	0
bin	0.4	0
bin	0.43333333333333	0
bin	0.46666666666667	0
bin	0.5	0
statistic LoRaNetworkTest.loRaNodes[0].LoRaNic.radio bitErrorRate:histogram
field count 0
field mean nan
field stddev nan
field min nan
field max nan
field sum 0
field sqrsum 0
attr source bitErrorRate
attr title "Bit error rate, histogram"
bin	-inf	0
bin	-0.5	0
bin	-0.46666666666667	0
bin	-0.43333333333333	0
bin	-0.4	0
bin	-0.36666666666667	0
bin	-0.33333333333333	0
bin	-0.3	0
bin	-0.26666666666667	0
bin	-0.23333333333333	0
bin	-0.2	0
bin	-0.16666666666667	0
bin	-0.13333333333333	0
bin	-0.1	0
bin	-0.066666666666667	0
bin	-0.033333333333333	0
bin	-6.9388939039072e-018	0
bin	0.033333333333333	0
bin	0.066666666666667	0
bin	0.1	0
bin	0.13333333333333	0
bin	0.16666666666667	0
bin	0.2	0
bin	0.23333333333333	0
bin	0.26666666666667	0
bin	0.3	0
bin	0.33333333333333	0
bin	0.36666666666667	0
bin	0.4	0
bin	0.43333333333333	0
bin	0.46666666666667	0
bin	0.5	0
statistic LoRaNetworkTest.loRaNodes[0].LoRaNic.radio packetErrorRate:histogram
field count 0
field mean nan
field stddev nan
field min nan
field max nan
field sum 0
field sqrsum 0
attr source packetErrorRate
attr title "Packet error rate, histogram"
bin	-inf	0
bin	-0.5	0
bin	-0.46666666666667	0
bin	-0.43333333333333	0
bin	-0.4	0
bin	-0.36666666666667	0
bin	-0.33333333333333	0
bin	-0.3	0
bin	-0.26666666666667	0
bin	-0.23333333333333	0
bin	-0.2	0
bin	-0.16666666666667	0
bin	-0.13333333333333	0
bin	-0.1	0
bin	-0.066666666666667	0
bin	-0.033333333333333	0
bin	-6.9388939039072e-018	0
bin	0.033333333333333	0
bin	0.066666666666667	0
bin	0.1	0
bin	0.13333333333333	0
bin	0.16666666666667	0
bin	0.2	0
bin	0.23333333333333	0
bin	0.26666666666667	0
bin	0.3	0
bin	0.33333333333333	0
bin	0.36666666666667	0
bin	0.4	0
bin	0.43333333333333	0
bin	0.46666666666667	0
bin	0.5	0
statistic LoRaNetworkTest.loRaNodes[0].LoRaNic.radio minSNIR:histogram
field count 66
field mean 1.8636197734984
field stddev 0.067881620356267
field min 1.3722541210938
field max 1.8747941104093
field sum 122.99890505089
field sqrsum 229.52270600633
attr source minSNIR
attr title "Min SNIR, histogram"
bin	-inf	0
bin	1.1209841264361	0
bin	1.1544867923905	0
bin	1.1879894583448	0
bin	1.2214921242992	0
bin	1.2549947902536	0
bin	1.2884974562079	0
bin	1.3220001221623	0
bin	1.3555027881167	1
bin	1.389005454071	0
bin	1.4225081200254	0
bin	1.4560107859797	0
bin	1.4895134519341	0
bin	1.5230161178885	0
bin	1.5565187838428	0
bin	1.5900214497972	0
bin	1.6235241157516	1
bin	1.6570267817059	0
bin	1.6905294476603	0
bin	1.7240321136146	0
bin	1.757534779569	0
bin	1.7910374455234	0
bin	1.8245401114777	0
bin	1.8580427774321	64
bin	1.8915454433865	0
bin	1.9250481093408	0
bin	1.9585507752952	0
bin	1.9920534412496	0
bin	2.0255561072039	0
bin	2.0590587731583	0
bin	2.0925614391126	0
bin	2.126064105067	0
scalar LoRaNetworkTest.loRaNodes[0].LoRaNic.radio transmissionState:count 19000
attr interpolationmode sample-hold
attr source transmissionStateChanged
attr title "Radio transmission state, count"
scalar LoRaNetworkTest.loRaNodes[0].LoRaNic.radio receptionState:count 23840
attr interpolationmode sample-hold
attr source receptionStateChanged
attr title "Radio reception state, count"
scalar LoRaNetworkTest.loRaNodes[0].LoRaNic.radio radioMode:count 32064
attr interpolationmode sample-hold
attr source radioModeChanged
attr title "Radio mode, count"
scalar LoRaNetworkTest.loRaNodes[0].SimpleLoRaApp positionX 263.43048110604
scalar LoRaNetworkTest.loRaNodes[0].SimpleLoRaApp positionY 284.56541586667
scalar LoRaNetworkTest.loRaNodes[0].SimpleLoRaApp finalTP 7
scalar LoRaNetworkTest.loRaNodes[0].SimpleLoRaApp finalSF 7
scalar LoRaNetworkTest.loRaNodes[0].SimpleLoRaApp sentPackets 4750
scalar LoRaNetworkTest.loRaNodes[0].SimpleLoRaApp receivedADRCommands 0
scalar LoRaNetworkTest.loRaNodes[0].SimpleLoRaApp LoRa_AppPacketSent:count 4750
attr source LoRa_AppPacketSent
scalar LoRaNetworkTest.loRaNodes[1].LoRaNic.mac numRetry 0
scalar LoRaNetworkTest.loRaNodes[1].LoRaNic.mac numSentWithoutRetry 0
scalar LoRaNetworkTest.loRaNodes[1].LoRaNic.mac numGivenUp 0
scalar LoRaNetworkTest.loRaNodes[1].LoRaNic.mac numSent 5567
scalar LoRaNetworkTest.loRaNodes[1].LoRaNic.mac numReceived 0
scalar LoRaNetworkTest.loRaNodes[1].LoRaNic.mac numSentBroadcast 0
scalar LoRaNetworkTest.loRaNodes[1].LoRaNic.mac numReceivedBroadcast 0
scalar LoRaNetworkTest.loRaNodes[1].LoRaNic.radio.transmitter LoRaTransmissionCreated:count 4831
attr source LoRaTransmissionCreated
scalar LoRaNetworkTest.loRaNodes[1].LoRaNic.radio.receiver numCollisions 0
scalar LoRaNetworkTest.loRaNodes[1].LoRaNic.radio.receiver rcvBelowSensitivity 1328
scalar LoRaNetworkTest.loRaNodes[1].LoRaNic.radio.receiver LoRaReceptionCollision:count 0
attr source LoRaReceptionCollision
scalar LoRaNetworkTest.loRaNodes[1].LoRaNic.radio.energyConsumer totalEnergyConsumed 392.37959710564
statistic LoRaNetworkTest.loRaNodes[1].LoRaNic.radio symbolErrorRate:histogram
field count 0
field mean nan
field stddev nan
field min nan
field max nan
field sum 0
field sqrsum 0
attr source symbolErrorRate
attr title "Symbol error rate, histogram"
bin	-inf	0
bin	-0.5	0
bin	-0.46666666666667	0
bin	-0.43333333333333	0
bin	-0.4	0
bin	-0.36666666666667	0
bin	-0.33333333333333	0
bin	-0.3	0
bin	-0.26666666666667	0
bin	-0.23333333333333	0
bin	-0.2	0
bin	-0.16666666666667	0
bin	-0.13333333333333	0
bin	-0.1	0
bin	-0.066666666666667	0
bin	-0.033333333333333	0
bin	-6.9388939039072e-018	0
bin	0.033333333333333	0
bin	0.066666666666667	0
bin	0.1	0
bin	0.13333333333333	0
bin	0.16666666666667	0
bin	0.2	0
bin	0.23333333333333	0
bin	0.26666666666667	0
bin	0.3	0
bin	0.33333333333333	0
bin	0.36666666666667	0
bin	0.4	0
bin	0.43333333333333	0
bin	0.46666666666667	0
bin	0.5	0
statistic LoRaNetworkTest.loRaNodes[1].LoRaNic.radio bitErrorRate:histogram
field count 0
field mean nan
field stddev nan
field min nan
field max nan
field sum 0
field sqrsum 0
attr source bitErrorRate
attr title "Bit error rate, histogram"
bin	-inf	0
bin	-0.5	0
bin	-0.46666666666667	0
bin	-0.43333333333333	0
bin	-0.4	0
bin	-0.36666666666667	0
bin	-0.33333333333333	0
bin	-0.3	0
bin	-0.26666666666667	0
bin	-0.23333333333333	0
bin	-0.2	0
bin	-0.16666666666667	0
bin	-0.13333333333333	0
bin	-0.1	0
bin	-0.066666666666667	0
bin	-0.033333333333333	0
bin	-6.9388939039072e-018	0
bin	0.033333333333333	0
bin	0.066666666666667	0
bin	0.1	0
bin	0.13333333333333	0
bin	0.16666666666667	0
bin	0.2	0
bin	0.23333333333333	0
bin	0.26666666666667	0
bin	0.3	0
bin	0.33333333333333	0
bin	0.36666666666667	0
bin	0.4	0
bin	0.43333333333333	0
bin	0.46666666666667	0
bin	0.5	0
statistic LoRaNetworkTest.loRaNodes[1].LoRaNic.radio packetErrorRate:histogram
field count 0
field mean nan
field stddev nan
field min nan
field max nan
field sum 0
field sqrsum 0
attr source packetErrorRate
attr title "Packet error rate, histogram"
bin	-inf	0
bin	-0.5	0
bin	-0.46666666666667	0
bin	-0.43333333333333	0
bin	-0.4	0
bin	-0.36666666666667	0
bin	-0.33333333333333	0
bin	-0.3	0
bin	-0.26666666666667	0
bin	-0.23333333333333	0
bin	-0.2	0
bin	-0.16666666666667	0
bin	-0.13333333333333	0
bin	-0.1	0
bin	-0.066666666666667	0
bin	-0.033333333333333	0
bin	-6.9388939039072e-018	0
bin	0.033333333333333	0
bin	0.066666666666667	0
bin	0.1	0
bin	0.13333333333333	0
bin	0.16666666666667	0
bin	0.2	0
bin	0.23333333333333	0
bin	0.26666666666667	0
bin	0.3	0
bin	0.33333333333333	0
bin	0.36666666666667	0
bin	0.4	0
bin	0.43333333333333	0
bin	0.46666666666667	0
bin	0.5	0
statistic LoRaNetworkTest.loRaNodes[1].LoRaNic.radio minSNIR:histogram
field count 86
field mean 2.4496531982
field stddev 0.026218025785352
field min 2.2427987778757
field max 2.4535427422515
field sum 210.6701750452
field sqrsum 516.1272957793
attr source minSNIR
attr title "Min SNIR, histogram"
bin	-inf	0
bin	2.1374267956879	0
bin	2.1514763933129	0
bin	2.165525990938	0
bin	2.179575588563	0
bin	2.1936251861881	0
bin	2.2076747838131	0
bin	2.2217243814382	0
bin	2.2357739790632	1
bin	2.2498235766882	0
bin	2.2638731743133	0
bin	2.2779227719383	0
bin	2.2919723695634	0
bin	2.3060219671884	0
bin	2.3200715648135	1
bin	2.3341211624385	0
bin	2.3481707600636	0
bin	2.3622203576886	0
bin	2.3762699553137	0
bin	2.3903195529387	0
bin	2.4043691505638	0
bin	2.4184187481888	0
bin	2.4324683458139	0
bin	2.4465179434389	84
bin	2.460567541064	0
bin	2.474617138689	0
bin	2.4886667363141	0
bin	2.5027163339391	0
bin	2.5167659315642	0
bin	2.5308155291892	0
bin	2.5448651268143	0
bin	2.5589147244393	0
scalar LoRaNetworkTest.loRaNodes[1].LoRaNic.radio transmissionState:count 19324
attr interpolationmode sample-hold
attr source transmissionStateChanged
attr title "Radio transmission state, count"
scalar LoRaNetworkTest.loRaNodes[1].LoRaNic.radio receptionState:count 24328
attr interpolationmode sample-hold
attr source receptionStateChanged
attr title "Radio reception state, count"
scalar LoRaNetworkTest.loRaNodes[1].LoRaNic.radio radioMode:count 32653
attr interpolationmode sample-hold
attr source radioModeChanged
attr title "Radio mode, count"
scalar LoRaNetworkTest.loRaNodes[1].SimpleLoRaApp positionX 405.24755716324
scalar LoRaNetworkTest.loRaNodes[1].SimpleLoRaApp positionY 289.32641778141
scalar LoRaNetworkTest.loRaNodes[1].SimpleLoRaApp finalTP 7
scalar LoRaNetworkTest.loRaNodes[1].SimpleLoRaApp finalSF 7
scalar LoRaNetworkTest.loRaNodes[1].SimpleLoRaApp sentPackets 4831
scalar LoRaNetworkTest.loRaNodes[1].SimpleLoRaApp receivedADRCommands 0
scalar LoRaNetworkTest.loRaNodes[1].SimpleLoRaApp LoRa_AppPacketSent:count 4831
attr source LoRa_AppPacketSent
scalar LoRaNetworkTest.loRaNodes[2].LoRaNic.mac numRetry 0
scalar LoRaNetworkTest.loRaNodes[2].LoRaNic.mac numSentWithoutRetry 0
scalar LoRaNetworkTest.loRaNodes[2].LoRaNic.mac numGivenUp 0
scalar LoRaNetworkTest.loRaNodes[2].LoRaNic.mac numSent 5488
scalar LoRaNetworkTest.loRaNodes[2].LoRaNic.mac numReceived 0
scalar LoRaNetworkTest.loRaNodes[2].LoRaNic.mac numSentBroadcast 0
scalar LoRaNetworkTest.loRaNodes[2].LoRaNic.mac numReceivedBroadcast 0
scalar LoRaNetworkTest.loRaNodes[2].LoRaNic.radio.transmitter LoRaTransmissionCreated:count 4671
attr source LoRaTransmissionCreated
scalar LoRaNetworkTest.loRaNodes[2].LoRaNic.radio.receiver numCollisions 0
scalar LoRaNetworkTest.loRaNodes[2].LoRaNic.radio.receiver rcvBelowSensitivity 1417
scalar LoRaNetworkTest.loRaNodes[2].LoRaNic.radio.receiver LoRaReceptionCollision:count 0
attr source LoRaReceptionCollision
scalar LoRaNetworkTest.loRaNodes[2].LoRaNic.radio.energyConsumer totalEnergyConsumed 386.828729751
statistic LoRaNetworkTest.loRaNodes[2].LoRaNic.radio symbolErrorRate:histogram
field count 0
field mean nan
field stddev nan
field min nan
field max nan
field sum 0
field sqrsum 0
attr source symbolErrorRate
attr title "Symbol error rate, histogram"
bin	-inf	0
bin	-0.5	0
bin	-0.46666666666667	0
bin	-0.43333333333333	0
bin	-0.4	0
bin	-0.36666666666667	0
bin	-0.33333333333333	0
bin	-0.3	0
bin	-0.26666666666667	0
bin	-0.23333333333333	0
bin	-0.2	0
bin	-0.16666666666667	0
bin	-0.13333333333333	0
bin	-0.1	0
bin	-0.066666666666667	0
bin	-0.033333333333333	0
bin	-6.9388939039072e-018	0
bin	0.033333333333333	0
bin	0.066666666666667	0
bin	0.1	0
bin	0.13333333333333	0
bin	0.16666666666667	0
bin	0.2	0
bin	0.23333333333333	0
bin	0.26666666666667	0
bin	0.3	0
bin	0.33333333333333	0
bin	0.36666666666667	0
bin	0.4	0
bin	0.43333333333333	0
bin	0.46666666666667	0
bin	0.5	0
statistic LoRaNetworkTest.loRaNodes[2].LoRaNic.radio bitErrorRate:histogram
field count 0
field mean nan
field stddev nan
field min nan
field max nan
field sum 0
field sqrsum 0
attr source bitErrorRate
attr title "Bit error rate, histogram"
bin	-inf	0
bin	-0.5	0
bin	-0.46666666666667	0
bin	-0.43333333333333	0
bin	-0.4	0
bin	-0.36666666666667	0
bin	-0.33333333333333	0
bin	-0.3	0
bin	-0.26666666666667	0
bin	-0.23333333333333	0
bin	-0.2	0
bin	-0.16666666666667	0
bin	-0.13333333333333	0
bin	-0.1	0
bin	-0.066666666666667	0
bin	-0.033333333333333	0
bin	-6.9388939039072e-018	0
bin	0.033333333333333	0
bin	0.066666666666667	0
bin	0.1	0
bin	0.13333333333333	0
bin	0.16666666666667	0
bin	0.2	0
bin	0.23333333333333	0
bin	0.26666666666667	0
bin	0.3	0
bin	0.33333333333333	0
bin	0.36666666666667	0
bin	0.4	0
bin	0.43333333333333	0
bin	0.46666666666667	0
bin	0.5	0
statistic LoRaNetworkTest.loRaNodes[2].LoRaNic.radio packetErrorRate:histogram
field count 0
field mean nan
field stddev nan
field min nan
field max nan
field sum 0
field sqrsum 0
attr source packetErrorRate
attr title "Packet error rate, histogram"
bin	-inf	0
bin	-0.5	0
bin	-0.46666666666667	0
bin	-0.43333333333333	0
bin	-0.4	0
bin	-0.36666666666667	0
bin	-0.33333333333333	0
bin	-0.3	0
bin	-0.26666666666667	0
bin	-0.23333333333333	0
bin	-0.2	0
bin	-0.16666666666667	0
bin	-0.13333333333333	0
bin	-0.1	0
bin	-0.066666666666667	0
bin	-0.033333333333333	0
bin	-6.9388939039072e-018	0
bin	0.033333333333333	0
bin	0.066666666666667	0
bin	0.1	0
bin	0.13333333333333	0
bin	0.16666666666667	0
bin	0.2	0
bin	0.23333333333333	0
bin	0.26666666666667	0
bin	0.3	0
bin	0.33333333333333	0
bin	0.36666666666667	0
bin	0.4	0
bin	0.43333333333333	0
bin	0.46666666666667	0
bin	0.5	0
statistic LoRaNetworkTest.loRaNodes[2].LoRaNic.radio minSNIR:histogram
field count 0
field mean nan
field stddev nan
field min nan
field max nan
field sum 0
field sqrsum 0
attr source minSNIR
attr title "Min SNIR, histogram"
bin	-inf	0
bin	-0.5	0
bin	-0.46666666666667	0
bin	-0.43333333333333	0
bin	-0.4	0
bin	-0.36666666666667	0
bin	-0.33333333333333	0
bin	-0.3	0
bin	-0.26666666666667	0
bin	-0.23333333333333	0
bin	-0.2	0
bin	-0.16666666666667	0
bin	-0.13333333333333	0
bin	-0.1	0
bin	-0.066666666666667	0
bin	-0.033333333333333	0
bin	-6.9388939039072e-018	0
bin	0.033333333333333	0
bin	0.066666666666667	0
bin	0.1	0
bin	0.13333333333333	0
bin	0.16666666666667	0
bin	0.2	0
bin	0.23333333333333	0
bin	0.26666666666667	0
bin	0.3	0
bin	0.33333333333333	0
bin	0.36666666666667	0
bin	0.4	0
bin	0.43333333333333	0
bin	0.46666666666667	0
bin	0.5	0
scalar LoRaNetworkTest.loRaNodes[2].LoRaNic.radio transmissionState:count 18684
attr interpolationmode sample-hold
attr source transmissionStateChanged
attr title "Radio transmission state, count"
scalar LoRaNetworkTest.loRaNodes[2].LoRaNic.radio receptionState:count 23568
attr interpolationmode sample-hold
attr source receptionStateChanged
attr title "Radio reception state, count"
scalar LoRaNetworkTest.loRaNodes[2].LoRaNic.radio radioMode:count 31689
attr interpolationmode sample-hold
attr source radioModeChanged
attr title "Radio mode, count"
scalar LoRaNetworkTest.loRaNodes[2].SimpleLoRaApp positionX 261.54392514378
scalar LoRaNetworkTest.loRaNodes[2].SimpleLoRaApp positionY 406.68083388358
scalar LoRaNetworkTest.loRaNodes[2].SimpleLoRaApp finalTP 7
scalar LoRaNetworkTest.loRaNodes[2].SimpleLoRaApp finalSF 7
scalar LoRaNetworkTest.loRaNodes[2].SimpleLoRaApp sentPackets 4671
scalar LoRaNetworkTest.loRaNodes[2].SimpleLoRaApp receivedADRCommands 0
scalar LoRaNetworkTest.loRaNodes[2].SimpleLoRaApp LoRa_AppPacketSent:count 4671
attr source LoRa_AppPacketSent
scalar LoRaNetworkTest.loRaNodes[3].LoRaNic.mac numRetry 0
scalar LoRaNetworkTest.loRaNodes[3].LoRaNic.mac numSentWithoutRetry 0
scalar LoRaNetworkTest.loRaNodes[3].LoRaNic.mac numGivenUp 0
scalar LoRaNetworkTest.loRaNodes[3].LoRaNic.mac numSent 5668
scalar LoRaNetworkTest.loRaNodes[3].LoRaNic.mac numReceived 0
scalar LoRaNetworkTest.loRaNodes[3].LoRaNic.mac numSentBroadcast 0
scalar LoRaNetworkTest.loRaNodes[3].LoRaNic.mac numReceivedBroadcast 0
scalar LoRaNetworkTest.loRaNodes[3].LoRaNic.radio.transmitter LoRaTransmissionCreated:count 4842
attr source LoRaTransmissionCreated
scalar LoRaNetworkTest.loRaNodes[3].LoRaNic.radio.receiver numCollisions 0
scalar LoRaNetworkTest.loRaNodes[3].LoRaNic.radio.receiver rcvBelowSensitivity 1335
scalar LoRaNetworkTest.loRaNodes[3].LoRaNic.radio.receiver LoRaReceptionCollision:count 0
attr source LoRaReceptionCollision
scalar LoRaNetworkTest.loRaNodes[3].LoRaNic.radio.energyConsumer totalEnergyConsumed 399.53298072333
statistic LoRaNetworkTest.loRaNodes[3].LoRaNic.radio symbolErrorRate:histogram
field count 0
field mean nan
field stddev nan
field min nan
field max nan
field sum 0
field sqrsum 0
attr source symbolErrorRate
attr title "Symbol error rate, histogram"
bin	-inf	0
bin	-0.5	0
bin	-0.46666666666667	0
bin	-0.43333333333333	0
bin	-0.4	0
bin	-0.36666666666667	0
bin	-0.33333333333333	0
bin	-0.3	0
bin	-0.26666666666667	0
bin	-0.23333333333333	0
bin	-0.2	0
bin	-0.16666666666667	0
bin	-0.13333333333333	0
bin	-0.1	0
bin	-0.066666666666667	0
bin	-0.033333333333333	0
bin	-6.9388939039072e-018	0
bin	0.033333333333333	0
bin	0.066666666666667	0
bin	0.1	0
bin	0.13333333333333	0
bin	0.16666666666667	0
bin	0.2	0
bin	0.23333333333333	0
bin	0.26666666666667	0
bin	0.3	0
bin	0.33333333333333	0
bin	0.36666666666667	0
bin	0.4	0
bin	0.43333333333333	0
bin	0.46666666666667	0
bin	0.5	0
statistic LoRaNetworkTest.loRaNodes[3].LoRaNic.radio bitErrorRate:histogram
field count 0
field mean nan
field stddev nan
field min nan
field max nan
field sum 0
field sqrsum 0
attr source bitErrorRate
attr title "Bit error rate, histogram"
bin	-inf	0
bin	-0.5	0
bin	-0.46666666666667	0
bin	-0.43333333333333	0
bin	-0.4	0
bin	-0.36666666666667	0
bin	-0.33333333333333	0
bin	-0.3	0
bin	-0.26666666666667	0
bin	-0.23333333333333	0
bin	-0.2	0
bin	-0.16666666666667	0
bin	-0.13333333333333	0
bin	-0.1	0
bin	-0.066666666666667	0
bin	-0.033333333333333	0
bin	-6.9388939039072e-018	0
bin	0.033333333333333	0
bin	0.066666666666667	0
bin	0.1	0
bin	0.13333333333333	0
bin	0.16666666666667	0
bin	0.2	0
bin	0.23333333333333	0
bin	0.26666666666667	0
bin	0.3	0
bin	0.33333333333333	0
bin	0.36666666666667	0
bin	0.4	0
bin	0.43333333333333	0
bin	0.46666666666667	0
bin	0.5	0
statistic LoRaNetworkTest.loRaNodes[3].LoRaNic.radio packetErrorRate:histogram
field count 0
field mean nan
field stddev nan
field min nan
field max nan
field sum 0
field sqrsum 0
attr source packetErrorRate
attr title "Packet error rate, histogram"
bin	-inf	0
bin	-0.5	0
bin	-0.46666666666667	0
bin	-0.43333333333333	0
bin	-0.4	0
bin	-0.36666666666667	0
bin	-0.33333333333333	0
bin	-0.3	0
bin	-0.26666666666667	0
bin	-0.23333333333333	0
bin	-0.2	0
bin	-0.16666666666667	0
bin	-0.13333333333333	0
bin	-0.1	0
bin	-0.066666666666667	0
bin	-0.033333333333333	0
bin	-6.9388939039072e-018	0
bin	0.033333333333333	0
bin	0.066666666666667	0
bin	0.1	0
bin	0.13333333333333	0
bin	0.16666666666667	0
bin	0.2	0
bin	0.23333333333333	0
bin	0.26666666666667	0
bin	0.3	0
bin	0.33333333333333	0
bin	0.36666666666667	0
bin	0.4	0
bin	0.43333333333333	0
bin	0.46666666666667	0
bin	0.5	0
statistic LoRaNetworkTest.loRaNodes[3].LoRaNic.radio minSNIR:histogram
field count 95
field mean 1.8714098502356
field stddev 0.025538803548961
field min 1.6408465337581
field max 1.8747941104093
field sum 177.78393577238
field sqrsum 332.76791828385
attr source minSNIR
attr title "Min SNIR, histogram"
bin	-inf	0
bin	1.5238727454325	0
bin	1.5394692505426	0
bin	1.5550657556527	0
bin	1.5706622607627	0
bin	1.5862587658728	0
bin	1.6018552709829	0
bin	1.617451776093	0
bin	1.6330482812031	1
bin	1.6486447863131	0
bin	1.6642412914232	0
bin	1.6798377965333	0
bin	1.6954343016434	0
bin	1.7110308067535	0
bin	1.7266273118635	0
bin	1.7422238169736	0
bin	1.7578203220837	0
bin	1.7734168271938	1
bin	1.7890133323038	0
bin	1.8046098374139	0
bin	1.820206342524	0
bin	1.8358028476341	0
bin	1.8513993527442	0
bin	1.8669958578542	93
bin	1.8825923629643	0
bin	1.8981888680744	0
bin	1.9137853731845	0
bin	1.9293818782946	0
bin	1.9449783834046	0
bin	1.9605748885147	0
bin	1.9761713936248	0
bin	1.9917678987349	0
scalar LoRaNetworkTest.loRaNodes[3].LoRaNic.radio transmissionState:count 19368
attr interpolationmode sample-hold
attr source transmissionStateChanged
attr title "Radio transmission state, count"
scalar LoRaNetworkTest.loRaNodes[3].LoRaNic.radio receptionState:count 24276
attr interpolationmode sample-hold
attr source receptionStateChanged
attr title "Radio reception state, count"
scalar LoRaNetworkTest.loRaNodes[3].LoRaNic.radio radioMode:count 32638
attr interpolationmode sample-hold
attr source radioModeChanged
attr title "Radio mode, count"
scalar LoRaNetworkTest.loRaNodes[3].SimpleLoRaApp positionX 299.31057427078
scalar LoRaNetworkTest.loRaNodes[3].SimpleLoRaApp positionY 310.02917524427
scalar LoRaNetworkTest.loRaNodes[3].SimpleLoRaApp finalTP 7
scalar LoRaNetworkTest.loRaNodes[3].SimpleLoRaApp finalSF 7
scalar LoRaNetworkTest.loRaNodes[3].SimpleLoRaApp sentPackets 4842
scalar LoRaNetworkTest.loRaNodes[3].SimpleLoRaApp receivedADRCommands 0
scalar LoRaNetworkTest.loRaNodes[3].SimpleLoRaApp LoRa_AppPacketSent:count 4842
attr source LoRa_AppPacketSent
scalar LoRaNetworkTest.loRaNodes[4].LoRaNic.mac numRetry 0
scalar LoRaNetworkTest.loRaNodes[4].LoRaNic.mac numSentWithoutRetry 0
scalar LoRaNetworkTest.loRaNodes[4].LoRaNic.mac numGivenUp 0
scalar LoRaNetworkTest.loRaNodes[4].LoRaNic.mac numSent 5601
scalar LoRaNetworkTest.loRaNodes[4].LoRaNic.mac numReceived 0
scalar LoRaNetworkTest.loRaNodes[4].LoRaNic.mac numSentBroadcast 0
scalar LoRaNetworkTest.loRaNodes[4].LoRaNic.mac numReceivedBroadcast 0
scalar LoRaNetworkTest.loRaNodes[4].LoRaNic.radio.transmitter LoRaTransmissionCreated:count 4794
attr source LoRaTransmissionCreated
scalar LoRaNetworkTest.loRaNodes[4].LoRaNic.radio.receiver numCollisions 0
scalar LoRaNetworkTest.loRaNodes[4].LoRaNic.radio.receiver rcvBelowSensitivity 1491
scalar LoRaNetworkTest.loRaNodes[4].LoRaNic.radio.receiver LoRaReceptionCollision:count 0
attr source LoRaReceptionCollision
scalar LoRaNetworkTest.loRaNodes[4].LoRaNic.radio.energyConsumer totalEnergyConsumed 394.77212535471
statistic LoRaNetworkTest.loRaNodes[4].LoRaNic.radio symbolErrorRate:histogram
field count 0
field mean nan
field stddev nan
field min nan
field max nan
field sum 0
field sqrsum 0
attr source symbolErrorRate
attr title "Symbol error rate, histogram"
bin	-inf	0
bin	-0.5	0
bin	-0.46666666666667	0
bin	-0.43333333333333	0
bin	-0.4	0
bin	-0.36666666666667	0
bin	-0.33333333333333	0
bin	-0.3	0
bin	-0.26666666666667	0
bin	-0.23333333333333	0
bin	-0.2	0
bin	-0.16666666666667	0
bin	-0.13333333333333	0
bin	-0.1	0
bin	-0.066666666666667	0
bin	-0.033333333333333	0
bin	-6.9388939039072e-018	0
bin	0.033333333333333	0
bin	0.066666666666667	0
bin	0.1	0
bin	0.13333333333333	0
bin	0.16666666666667	0
bin	0.2	0
bin	0.23333333333333	0
bin	0.26666666666667	0
bin	0.3	0
bin	0.33333333333333	0
bin	0.36666666666667	0
bin	0.4	0
bin	0.43333333333333	0
bin	0.46666666666667	0
bin	0.5	0
statistic LoRaNetworkTest.loRaNodes[4].LoRaNic.radio bitErrorRate:histogram
field count 0
field mean nan
field stddev nan
field min nan
field max nan
field sum 0
field sqrsum 0
attr source bitErrorRate
attr title "Bit error rate, histogram"
bin	-inf	0
bin	-0.5	0
bin	-0.46666666666667	0
bin	-0.43333333333333	0
bin	-0.4	0
bin	-0.36666666666667	0
bin	-0.33333333333333	0
bin	-0.3	0
bin	-0.26666666666667	0
bin	-0.23333333333333	0
bin	-0.2	0
bin	-0.16666666666667	0
bin	-0.13333333333333	0
bin	-0.1	0
bin	-0.066666666666667	0
bin	-0.033333333333333	0
bin	-6.9388939039072e-018	0
bin	0.033333333333333	0
bin	0.066666666666667	0
bin	0.1	0
bin	0.13333333333333	0
bin	0.16666666666667	0
bin	0.2	0
bin	0.23333333333333	0
bin	0.26666666666667	0
bin	0.3	0
bin	0.33333333333333	0
bin	0.36666666666667	0
bin	0.4	0
bin	0.43333333333333	0
bin	0.46666666666667	0
bin	0.5	0
statistic LoRaNetworkTest.loRaNodes[4].LoRaNic.radio packetErrorRate:histogram
field count 0
field mean nan
field stddev nan
field min nan
field max nan
field sum 0
field sqrsum 0
attr source packetErrorRate
attr title "Packet error rate, histogram"
bin	-inf	0
bin	-0.5	0
bin	-0.46666666666667	0
bin	-0.43333333333333	0
bin	-0.4	0
bin	-0.36666666666667	0
bin	-0.33333333333333	0
bin	-0.3	0
bin	-0.26666666666667	0
bin	-0.23333333333333	0
bin	-0.2	0
bin	-0.16666666666667	0
bin	-0.13333333333333	0
bin	-0.1	0
bin	-0.066666666666667	0
bin	-0.033333333333333	0
bin	-6.9388939039072e-018	0
bin	0.033333333333333	0
bin	0.066666666666667	0
bin	0.1	0
bin	0.13333333333333	0
bin	0.16666666666667	0
bin	0.2	0
bin	0.23333333333333	0
bin	0.26666666666667	0
bin	0.3	0
bin	0.33333333333333	0
bin	0.36666666666667	0
bin	0.4	0
bin	0.43333333333333	0
bin	0.46666666666667	0
bin	0.5	0
statistic LoRaNetworkTest.loRaNodes[4].LoRaNic.radio minSNIR:histogram
field count 0
field mean nan
field stddev nan
field min nan
field max nan
field sum 0
field sqrsum 0
attr source minSNIR
attr title "Min SNIR, histogram"
bin	-inf	0
bin	-0.5	0
bin	-0.46666666666667	0
bin	-0.43333333333333	0
bin	-0.4	0
bin	-0.36666666666667	0
bin	-0.33333333333333	0
bin	-0.3	0
bin	-0.26666666666667	0
bin	-0.23333333333333	0
bin	-0.2	0
bin	-0.16666666666667	0
bin	-0.13333333333333	0
bin	-0.1	0
bin	-0.066666666666667	0
bin	-0.033333333333333	0
bin	-6.9388939039072e-018	0
bin	0.033333333333333	0
bin	0.066666666666667	0
bin	0.1	0
bin	0.13333333333333	0
bin	0.16666666666667	0
bin	0.2	0
bin	0.23333333333333	0
bin	0.26666666666667	0
bin	0.3	0
bin	0.33333333333333	0
bin	0.36666666666667	0
bin	0.4	0
bin	0.43333333333333	0
bin	0.46666666666667	0
bin	0.5	0
scalar LoRaNetworkTest.loRaNodes[4].LoRaNic.radio transmissionState:count 19176
attr interpolationmode sample-hold
attr source transmissionStateChanged
attr title "Radio transmission state, count"
scalar LoRaNetworkTest.loRaNodes[4].LoRaNic.radio receptionState:count 24319
attr interpolationmode sample-hold
attr source receptionStateChanged
attr title "Radio reception state, count"
scalar LoRaNetworkTest.loRaNodes[4].LoRaNic.radio radioMode:count 32621
attr interpolationmode sample-hold
attr source radioModeChanged
attr title "Radio mode, count"
scalar LoRaNetworkTest.loRaNodes[4].SimpleLoRaApp positionX 210.04186078906
scalar LoRaNetworkTest.loRaNodes[4].SimpleLoRaApp positionY 142.81661052257
scalar LoRaNetworkTest.loRaNodes[4].SimpleLoRaApp finalTP 7
scalar LoRaNetworkTest.loRaNodes[4].SimpleLoRaApp finalSF 7
scalar LoRaNetworkTest.loRaNodes[4].SimpleLoRaApp sentPackets 4794
scalar LoRaNetworkTest.loRaNodes[4].SimpleLoRaApp receivedADRCommands 0
scalar LoRaNetworkTest.loRaNodes[4].SimpleLoRaApp LoRa_AppPacketSent:count 4794
attr source LoRa_AppPacketSent
scalar LoRaNetworkTest.loRaNodes[5].LoRaNic.mac numRetry 0
scalar LoRaNetworkTest.loRaNodes[5].LoRaNic.mac numSentWithoutRetry 0
scalar LoRaNetworkTest.loRaNodes[5].LoRaNic.mac numGivenUp 0
scalar LoRaNetworkTest.loRaNodes[5].LoRaNic.mac numSent 5674
scalar LoRaNetworkTest.loRaNodes[5].LoRaNic.mac numReceived 0
scalar LoRaNetworkTest.loRaNodes[5].LoRaNic.mac numSentBroadcast 0
scalar LoRaNetworkTest.loRaNodes[5].LoRaNic.mac numReceivedBroadcast 0
scalar LoRaNetworkTest.loRaNodes[5].LoRaNic.radio.transmitter LoRaTransmissionCreated:count 4883
attr source LoRaTransmissionCreated
scalar LoRaNetworkTest.loRaNodes[5].LoRaNic.radio.receiver numCollisions 0
scalar LoRaNetworkTest.loRaNodes[5].LoRaNic.radio.receiver rcvBelowSensitivity 1409
scalar LoRaNetworkTest.loRaNodes[5].LoRaNic.radio.receiver LoRaReceptionCollision:count 0
attr source LoRaReceptionCollision
scalar LoRaNetworkTest.loRaNodes[5].LoRaNic.radio.energyConsumer totalEnergyConsumed 399.98098253558
statistic LoRaNetworkTest.loRaNodes[5].LoRaNic.radio symbolErrorRate:histogram
field count 0
field mean nan
field stddev nan
field min nan
field max nan
field sum 0
field sqrsum 0
attr source symbolErrorRate
attr title "Symbol error rate, histogram"
bin	-inf	0
bin	-0.5	0
bin	-0.46666666666667	0
bin	-0.43333333333333	0
bin	-0.4	0
bin	-0.36666666666667	0
bin	-0.33333333333333	0
bin	-0.3	0
bin	-0.26666666666667	0
bin	-0.23333333333333	0
bin	-0.2	0
bin	-0.16666666666667	0
bin	-0.13333333333333	0
bin	-0.1	0
bin	-0.066666666666667	0
bin	-0.033333333333333	0
bin	-6.9388939039072e-018	0
bin	0.033333333333333	0
bin	0.066666666666667	0
bin	0.1	0
bin	0.13333333333333	0
bin	0.16666666666667	0
bin	0.2	0
bin	0.23333333333333	0
bin	0.26666666666667	0
bin	0.3	0
bin	0.33333333333333	0
bin	0.36666666666667	0
bin	0.4	0
bin	0.43333333333333	0
bin	0.46666666666667	0
bin	0.5	0
statistic LoRaNetworkTest.loRaNodes[5].LoRaNic.radio bitErrorRate:histogram
field count 0
field mean nan
field stddev nan
field min nan
field max nan
field sum 0
field sqrsum 0
attr source bitErrorRate
attr title "Bit error rate, histogram"
bin	-inf	0
bin	-0.5	0
bin	-0.46666666666667	0
bin	-0.43333333333333	0
bin	-0.4	0
bin	-0.36666666666667	0
bin	-0.33333333333333	0
bin	-0.3	0
bin	-0.26666666666667	0
bin	-0.23333333333333	0
bin	-0.2	0
bin	-0.16666666666667	0
bin	-0.13333333333333	0
bin	-0.1	0
bin	-0.066666666666667	0
bin	-0.033333333333333	0
bin	-6.9388939039072e-018	0
bin	0.033333333333333	0
bin	0.066666666666667	0
bin	0.1	0
bin	0.13333333333333	0
bin	0.16666666666667	0
bin	0.2	0
bin	0.23333333333333	0
bin	0.26666666666667	0
bin	0.3	0
bin	0.33333333333333	0
bin	0.36666666666667	0
bin	0.4	0
bin	0.43333333333333	0
bin	0.46666666666667	0
bin	0.5	0
statistic LoRaNetworkTest.loRaNodes[5].LoRaNic.radio packetErrorRate:histogram
field count 0
field mean nan
field stddev nan
field min nan
field max nan
field sum 0
field sqrsum 0
attr source packetErrorRate
attr title "Packet error rate, histogram"
bin	-inf	0
bin	-0.5	0
bin	-0.46666666666667	0
bin	-0.43333333333333	0
bin	-0.4	0
bin	-0.36666666666667	0
bin	-0.33333333333333	0
bin	-0.3	0
bin	-0.26666666666667	0
bin	-0.23333333333333	0
bin	-0.2	0
bin	-0.16666666666667	0
bin	-0.13333333333333	0
bin	-0.1	0
bin	-0.066666666666667	0
bin	-0.033333333333333	0
bin	-6.9388939039072e-018	0
bin	0.033333333333333	0
bin	0.066666666666667	0
bin	0.1	0
bin	0.13333333333333	0
bin	0.16666666666667	0
bin	0.2	0
bin	0.23333333333333	0
bin	0.26666666666667	0
bin	0.3	0
bin	0.33333333333333	0
bin	0.36666666666667	0
bin	0.4	0
bin	0.43333333333333	0
bin	0.46666666666667	0
bin	0.5	0
statistic LoRaNetworkTest.loRaNodes[5].LoRaNic.radio minSNIR:histogram
field count 0
field mean nan
field stddev nan
field min nan
field max nan
field sum 0
field sqrsum 0
attr source minSNIR
attr title "Min SNIR, histogram"
bin	-inf	0
bin	-0.5	0
bin	-0.46666666666667	0
bin	-0.43333333333333	0
bin	-0.4	0
bin	-0.36666666666667	0
bin	-0.33333333333333	0
bin	-0.3	0
bin	-0.26666666666667	0
bin	-0.23333333333333	0
bin	-0.2	0
bin	-0.16666666666667	0
bin	-0.13333333333333	0
bin	-0.1	0
bin	-0.066666666666667	0
bin	-0.033333333333333	0
bin	-6.9388939039072e-018	0
bin	0.033333333333333	0
bin	0.066666666666667	0
bin	0.1	0
bin	0.13333333333333	0
bin	0.16666666666667	0
bin	0.2	0
bin	0.23333333333333	0
bin	0.26666666666667	0
bin	0.3	0
bin	0.33333333333333	0
bin	0.36666666666667	0
bin	0.4	0
bin	0.43333333333333	0
bin	0.46666666666667	0
bin	0.5	0
scalar LoRaNetworkTest.loRaNodes[5].LoRaNic.radio transmissionState:count 19532
attr interpolationmode sample-hold
attr source transmissionStateChanged
attr title "Radio transmission state, count"
scalar LoRaNetworkTest.loRaNodes[5].LoRaNic.radio receptionState:count 24411
attr interpolationmode sample-hold
attr source receptionStateChanged
attr title "Radio reception state, count"
scalar LoRaNetworkTest.loRaNodes[5].LoRaNic.radio radioMode:count 32958
attr interpolationmode sample-hold
attr source radioModeChanged
attr title "Radio mode, count"
scalar LoRaNetworkTest.loRaNodes[5].SimpleLoRaApp positionX 27.222228348255
scalar LoRaNetworkTest.loRaNodes[5].SimpleLoRaApp positionY 462.55812674761
scalar LoRaNetworkTest.loRaNodes[5].SimpleLoRaApp finalTP 7
scalar LoRaNetworkTest.loRaNodes[5].SimpleLoRaApp finalSF 7
scalar LoRaNetworkTest.loRaNodes[5].SimpleLoRaApp sentPackets 4883
scalar LoRaNetworkTest.loRaNodes[5].SimpleLoRaApp receivedADRCommands 0
scalar LoRaNetworkTest.loRaNodes[5].SimpleLoRaApp LoRa_AppPacketSent:count 4883
attr source LoRa_AppPacketSent
scalar LoRaNetworkTest.loRaNodes[6].LoRaNic.mac numRetry 0
scalar LoRaNetworkTest.loRaNodes[6].LoRaNic.mac numSentWithoutRetry 0
scalar LoRaNetworkTest.loRaNodes[6].LoRaNic.mac numGivenUp 0
scalar LoRaNetworkTest.loRaNodes[6].LoRaNic.mac numSent 5591
scalar LoRaNetworkTest.loRaNodes[6].LoRaNic.mac numReceived 0
scalar LoRaNetworkTest.loRaNodes[6].LoRaNic.mac numSentBroadcast 0
scalar LoRaNetworkTest.loRaNodes[6].LoRaNic.mac numReceivedBroadcast 0
scalar LoRaNetworkTest.loRaNodes[6].LoRaNic.radio.transmitter LoRaTransmissionCreated:count 4783
attr source LoRaTransmissionCreated
scalar LoRaNetworkTest.loRaNodes[6].LoRaNic.radio.receiver numCollisions 0
scalar LoRaNetworkTest.loRaNodes[6].LoRaNic.radio.receiver rcvBelowSensitivity 1402
scalar LoRaNetworkTest.loRaNodes[6].LoRaNic.radio.receiver LoRaReceptionCollision:count 0
attr source LoRaReceptionCollision
scalar LoRaNetworkTest.loRaNodes[6].LoRaNic.radio.energyConsumer totalEnergyConsumed 394.0762010398
statistic LoRaNetworkTest.loRaNodes[6].LoRaNic.radio symbolErrorRate:histogram
field count 0
field mean nan
field stddev nan
field min nan
field max nan
field sum 0
field sqrsum 0
attr source symbolErrorRate
attr title "Symbol error rate, histogram"
bin	-inf	0
bin	-0.5	0
bin	-0.46666666666667	0
bin	-0.43333333333333	0
bin	-0.4	0
bin	-0.36666666666667	0
bin	-0.33333333333333	0
bin	-0.3	0
bin	-0.26666666666667	0
bin	-0.23333333333333	0
bin	-0.2	0
bin	-0.16666666666667	0
bin	-0.13333333333333	0
bin	-0.1	0
bin	-0.066666666666667	0
bin	-0.033333333333333	0
bin	-6.9388939039072e-018	0
bin	0.033333333333333	0
bin	0.066666666666667	0
bin	0.1	0
bin	0.13333333333333	0
bin	0.16666666666667	0
bin	0.2	0
bin	0.23333333333333	0
bin	0.26666666666667	0
bin	0.3	0
bin	0.33333333333333	0
bin	0.36666666666667	0
bin	0.4	0
bin	0.43333333333333	0
bin	0.46666666666667	0
bin	0.5	0
statistic LoRaNetworkTest.loRaNodes[6].LoRaNic.radio bitErrorRate:histogram
field count 0
field mean nan
field stddev nan
field min nan
field max nan
field sum 0
field sqrsum 0
attr source bitErrorRate
attr title "Bit error rate, histogram"
bin	-inf	0
bin	-0.5	0
bin	-0.46666666666667	0
bin	-0.43333333333333	0
bin	-0.4	0
bin	-0.36666666666667	0
bin	-0.33333333333333	0
bin	-0.3	0
bin	-0.26666666666667	0
bin	-0.23333333333333	0
bin	-0.2	0
bin	-0.16666666666667	0
bin	-0.13333333333333	0
bin	-0.1	0
bin	-0.066666666666667	0
bin	-0.033333333333333	0
bin	-6.9388939039072e-018	0
bin	0.033333333333333	0
bin	0.066666666666667	0
bin	0.1	0
bin	0.13333333333333	0
bin	0.16666666666667	0
bin	0.2	0
bin	0.23333333333333	0
bin	0.26666666666667	0
bin	0.3	0
bin	0.33333333333333	0
bin	0.36666666666667	0
bin	0.4	0
bin	0.43333333333333	0
bin	0.46666666666667	0
bin	0.5	0
statistic LoRaNetworkTest.loRaNodes[6].LoRaNic.radio packetErrorRate:histogram
field count 0
field mean nan
field stddev nan
field min nan
field max nan
field sum 0
field sqrsum 0
attr source packetErrorRate
attr title "Packet error rate, histogram"
bin	-inf	0
bin	-0.5	0
bin	-0.46666666666667	0
bin	-0.43333333333333	0
bin	-0.4	0
bin	-0.36666666666667	0
bin	-0.33333333333333	0
bin	-0.3	0
bin	-0.26666666666667	0
bin	-0.23333333333333	0
bin	-0.2	0
bin	-0.16666666666667	0
bin	-0.13333333333333	0
bin	-0.1	0
bin	-0.066666666666667	0
bin	-0.033333333333333	0
bin	-6.9388939039072e-018	0
bin	0.033333333333333	0
bin	0.066666666666667	0
bin	0.1	0
bin	0.13333333333333	0
bin	0.16666666666667	0
bin	0.2	0
bin	0.23333333333333	0
bin	0.26666666666667	0
bin	0.3	0
bin	0.33333333333333	0
bin	0.36666666666667	0
bin	0.4	0
bin	0.43333333333333	0
bin	0.46666666666667	0
bin	0.5	0
statistic LoRaNetworkTest.loRaNodes[6].LoRaNic.radio minSNIR:histogram
field count 0
field mean nan
field stddev nan
field min nan
field max nan
field sum 0
field sqrsum 0
attr source minSNIR
attr title "Min SNIR, histogram"
bin	-inf	0
bin	-0.5	0
bin	-0.46666666666667	0
bin	-0.43333333333333	0
bin	-0.4	0
bin	-0.36666666666667	0
bin	-0.33333333333333	0
bin	-0.3	0
bin	-0.26666666666667	0
bin	-0.23333333333333	0
bin	-0.2	0
bin	-0.16666666666667	0
bin	-0.13333333333333	0
bin	-0.1	0
bin	-0.066666666666667	0
bin	-0.033333333333333	0
bin	-6.9388939039072e-018	0
bin	0.033333333333333	0
bin	0.066666666666667	0
bin	0.1	0
bin	0.13333333333333	0
bin	0.16666666666667	0
bin	0.2	0
bin	0.23333333333333	0
bin	0.26666666666667	0
bin	0.3	0
bin	0.33333333333333	0
bin	0.36666666666667	0
bin	0.4	0
bin	0.43333333333333	0
bin	0.46666666666667	0
bin	0.5	0
scalar LoRaNetworkTest.loRaNodes[6].LoRaNic.radio transmissionState:count 19132
attr interpolationmode sample-hold
attr source transmissionStateChanged
attr title "Radio transmission state, count"
scalar LoRaNetworkTest.loRaNodes[6].LoRaNic.radio receptionState:count 24018
attr interpolationmode sample-hold
attr source receptionStateChanged
attr title "Radio reception state, count"
scalar LoRaNetworkTest.loRaNodes[6].LoRaNic.radio radioMode:count 32363
attr interpolationmode sample-hold
attr source radioModeChanged
attr title "Radio mode, count"
scalar LoRaNetworkTest.loRaNodes[6].SimpleLoRaApp positionX 184.05193023384
scalar LoRaNetworkTest.loRaNodes[6].SimpleLoRaApp positionY 229.27925359458
scalar LoRaNetworkTest.loRaNodes[6].SimpleLoRaApp finalTP 7
scalar LoRaNetworkTest.loRaNodes[6].SimpleLoRaApp finalSF 7
scalar LoRaNetworkTest.loRaNodes[6].SimpleLoRaApp sentPackets 4783
scalar LoRaNetworkTest.loRaNodes[6].SimpleLoRaApp receivedADRCommands 0
scalar LoRaNetworkTest.loRaNodes[6].SimpleLoRaApp LoRa_AppPacketSent:count 4783
attr source LoRa_AppPacketSent
scalar LoRaNetworkTest.loRaNodes[7].LoRaNic.mac numRetry 0
scalar LoRaNetworkTest.loRaNodes[7].LoRaNic.mac numSentWithoutRetry 0
scalar LoRaNetworkTest.loRaNodes[7].LoRaNic.mac numGivenUp 0
scalar LoRaNetworkTest.loRaNodes[7].LoRaNic.mac numSent 5590
scalar LoRaNetworkTest.loRaNodes[7].LoRaNic.mac numReceived 0
scalar LoRaNetworkTest.loRaNodes[7].LoRaNic.mac numSentBroadcast 0
scalar LoRaNetworkTest.loRaNodes[7].LoRaNic.mac numReceivedBroadcast 0
scalar LoRaNetworkTest.loRaNodes[7].LoRaNic.radio.transmitter LoRaTransmissionCreated:count 4768
attr source LoRaTransmissionCreated
scalar LoRaNetworkTest.loRaNodes[7].LoRaNic.radio.receiver numCollisions 0
scalar LoRaNetworkTest.loRaNodes[7].LoRaNic.radio.receiver rcvBelowSensitivity 1312
scalar LoRaNetworkTest.loRaNodes[7].LoRaNic.radio.receiver LoRaReceptionCollision:count 0
attr source LoRaReceptionCollision
scalar LoRaNetworkTest.loRaNodes[7].LoRaNic.radio.energyConsumer totalEnergyConsumed 394.02439346273
statistic LoRaNetworkTest.loRaNodes[7].LoRaNic.radio symbolErrorRate:histogram
field count 0
field mean nan
field stddev nan
field min nan
field max nan
field sum 0
field sqrsum 0
attr source symbolErrorRate
attr title "Symbol error rate, histogram"
bin	-inf	0
bin	-0.5	0
bin	-0.46666666666667	0
bin	-0.43333333333333	0
bin	-0.4	0
bin	-0.36666666666667	0
bin	-0.33333333333333	0
bin	-0.3	0
bin	-0.26666666666667	0
bin	-0.23333333333333	0
bin	-0.2	0
bin	-0.16666666666667	0
bin	-0.13333333333333	0
bin	-0.1	0
bin	-0.066666666666667	0
bin	-0.033333333333333	0
bin	-6.9388939039072e-018	0
bin	0.033333333333333	0
bin	0.066666666666667	0
bin	0.1	0
bin	0.13333333333333	0
bin	0.16666666666667	0
bin	0.2	0
bin	0.23333333333333	0
bin	0.26666666666667	0
bin	0.3	0
bin	0.33333333333333	0
bin	0.36666666666667	0
bin	0.4	0
bin	0.43333333333333	0
bin	0.46666666666667	0
bin	0.5	0
statistic LoRaNetworkTest.loRaNodes[7].LoRaNic.radio bitErrorRate:histogram
field count 0
field mean nan
field stddev nan
field min nan
field max nan
field sum 0
field sqrsum 0
attr source bitErrorRate
attr title "Bit error rate, histogram"
bin	-inf	0
bin	-0.5	0
bin	-0.46666666666667	0
bin	-0.43333333333333	0
bin	-0.4	0
bin	-0.36666666666667	0
bin	-0.33333333333333	0
bin	-0.3	0
bin	-0.26666666666667	0
bin	-0.23333333333333	0
bin	-0.2	0
bin	-0.16666666666667	0
bin	-0.13333333333333	0
bin	-0.1	0
bin	-0.066666666666667	0
bin	-0.033333333333333	0
bin	-6.9388939039072e-018	0
bin	0.033333333333333	0
bin	0.066666666666667	0
bin	0.1	0
bin	0.13333333333333	0
bin	0.16666666666667	0
bin	0.2	0
bin	0.23333333333333	0
bin	0.26666666666667	0
bin	0.3	0
bin	0.33333333333333	0
bin	0.36666666666667	0
bin	0.4	0
bin	0.43333333333333	0
bin	0.46666666666667	0
bin	0.5	0
statistic LoRaNetworkTest.loRaNodes[7].LoRaNic.radio packetErrorRate:histogram
field count 0
field mean nan
field stddev nan
field min nan
field max nan
field sum 0
field sqrsum 0
attr source packetErrorRate
attr title "Packet error rate, histogram"
bin	-inf	0
bin	-0.5	0
bin	-0.46666666666667	0
bin	-0.43333333333333	0
bin	-0.4	0
bin	-0.36666666666667	0
bin	-0.33333333333333	0
bin	-0.3	0
bin	-0.26666666666667	0
bin	-0.23333333333333	0
bin	-0.2	0
bin	-0.16666666666667	0
bin	-0.13333333333333	0
bin	-0.1	0
bin	-0.066666666666667	0
bin	-0.033333333333333	0
bin	-6.9388939039072e-018	0
bin	0.033333333333333	0
bin	0.066666666666667	0
bin	0.1	0
bin	0.13333333333333	0
bin	0.16666666666667	0
bin	0.2	0
bin	0.23333333333333	0
bin	0.26666666666667	0
bin	0.3	0
bin	0.33333333333333	0
bin	0.36666666666667	0
bin	0.4	0
bin	0.43333333333333	0
bin	0.46666666666667	0
bin	0.5	0
statistic LoRaNetworkTest.loRaNodes[7].LoRaNic.radio minSNIR:histogram
field count 94
field mean 2.4530984957719
field stddev 0.0043071294201585
field min 2.411783573168
field max 2.4535427422515
field sum 230.59125860255
field sqrsum 565.6647948929
attr source minSNIR
attr title "Min SNIR, histogram"
bin	-inf	0
bin	2.3909039886262	0
bin	2.3936879332318	0
bin	2.3964718778373	0
bin	2.3992558224429	0
bin	2.4020397670485	0
bin	2.404823711654	0
bin	2.4076076562596	0
bin	2.4103916008652	1
bin	2.4131755454707	0
bin	2.4159594900763	0
bin	2.4187434346819	0
bin	2.4215273792874	0
bin	2.424311323893	0
bin	2.4270952684986	0
bin	2.4298792131041	0
bin	2.4326631577097	0
bin	2.4354471023153	0
bin	2.4382310469208	0
bin	2.4410149915264	0
bin	2.443798936132	0
bin	2.4465828807375	0
bin	2.4493668253431	0
bin	2.4521507699487	93
bin	2.4549347145542	0
bin	2.4577186591598	0
bin	2.4605026037654	0
bin	2.4632865483709	0
bin	2.4660704929765	0
bin	2.4688544375821	0
bin	2.4716383821876	0
bin	2.4744223267932	0
scalar LoRaNetworkTest.loRaNodes[7].LoRaNic.radio transmissionState:count 19072
attr interpolationmode sample-hold
attr source transmissionStateChanged
attr title "Radio transmission state, count"
scalar LoRaNetworkTest.loRaNodes[7].LoRaNic.radio receptionState:count 23956
attr interpolationmode sample-hold
attr source receptionStateChanged
attr title "Radio reception state, count"
scalar LoRaNetworkTest.loRaNodes[7].LoRaNic.radio radioMode:count 32177
attr interpolationmode sample-hold
attr source radioModeChanged
attr title "Radio mode, count"
scalar LoRaNetworkTest.loRaNodes[7].SimpleLoRaApp positionX 389.84098870307
scalar LoRaNetworkTest.loRaNodes[7].SimpleLoRaApp positionY 253.86956233531
scalar LoRaNetworkTest.loRaNodes[7].SimpleLoRaApp finalTP 7
scalar LoRaNetworkTest.loRaNodes[7].SimpleLoRaApp finalSF 7
scalar LoRaNetworkTest.loRaNodes[7].SimpleLoRaApp sentPackets 4768
scalar LoRaNetworkTest.loRaNodes[7].SimpleLoRaApp receivedADRCommands 0
scalar LoRaNetworkTest.loRaNodes[7].SimpleLoRaApp LoRa_AppPacketSent:count 4768
attr source LoRa_AppPacketSent
scalar LoRaNetworkTest.loRaNodes[8].LoRaNic.mac numRetry 0
scalar LoRaNetworkTest.loRaNodes[8].LoRaNic.mac numSentWithoutRetry 0
scalar LoRaNetworkTest.loRaNodes[8].LoRaNic.mac numGivenUp 0
scalar LoRaNetworkTest.loRaNodes[8].LoRaNic.mac numSent 5611
scalar LoRaNetworkTest.loRaNodes[8].LoRaNic.mac numReceived 0
scalar LoRaNetworkTest.loRaNodes[8].LoRaNic.mac numSentBroadcast 0
scalar LoRaNetworkTest.loRaNodes[8].LoRaNic.mac numReceivedBroadcast 0
scalar LoRaNetworkTest.loRaNodes[8].LoRaNic.radio.transmitter LoRaTransmissionCreated:count 4854
attr source LoRaTransmissionCreated
scalar LoRaNetworkTest.loRaNodes[8].LoRaNic.radio.receiver numCollisions 0
scalar LoRaNetworkTest.loRaNodes[8].LoRaNic.radio.receiver rcvBelowSensitivity 1408
scalar LoRaNetworkTest.loRaNodes[8].LoRaNic.radio.receiver LoRaReceptionCollision:count 0
attr source LoRaReceptionCollision
scalar LoRaNetworkTest.loRaNodes[8].LoRaNic.radio.energyConsumer totalEnergyConsumed 395.47795785086
statistic LoRaNetworkTest.loRaNodes[8].LoRaNic.radio symbolErrorRate:histogram
field count 0
field mean nan
field stddev nan
field min nan
field max nan
field sum 0
field sqrsum 0
attr source symbolErrorRate
attr title "Symbol error rate, histogram"
bin	-inf	0
bin	-0.5	0
bin	-0.46666666666667	0
bin	-0.43333333333333	0
bin	-0.4	0
bin	-0.36666666666667	0
bin	-0.33333333333333	0
bin	-0.3	0
bin	-0.26666666666667	0
bin	-0.23333333333333	0
bin	-0.2	0
bin	-0.16666666666667	0
bin	-0.13333333333333	0
bin	-0.1	0
bin	-0.066666666666667	0
bin	-0.033333333333333	0
bin	-6.9388939039072e-018	0
bin	0.033333333333333	0
bin	0.066666666666667	0
bin	0.1	0
bin	0.13333333333333	0
bin	0.16666666666667	0
bin	0.2	0
bin	0.23333333333333	0
bin	0.26666666666667	0
bin	0.3	0
bin	0.33333333333333	0
bin	0.36666666666667	0
bin	0.4	0
bin	0.43333333333333	0
bin	0.46666666666667	0
bin	0.5	0
statistic LoRaNetworkTest.loRaNodes[8].LoRaNic.radio bitErrorRate:histogram
field count 0
field mean nan
field stddev nan
field min nan
field max nan
field sum 0
field sqrsum 0
attr source bitErrorRate
attr title "Bit error rate, histogram"
bin	-inf	0
bin	-0.5	0
bin	-0.46666666666667	0
bin	-0.43333333333333	0
bin	-0.4	0
bin	-0.36666666666667	0
bin	-0.33333333333333	0
bin	-0.3	0
bin	-0.26666666666667	0
bin	-0.23333333333333	0
bin	-0.2	0
bin	-0.16666666666667	0
bin	-0.13333333333333	0
bin	-0.1	0
bin	-0.066666666666667	0
bin	-0.033333333333333	0
bin	-6.9388939039072e-018	0
bin	0.033333333333333	0
bin	0.066666666666667	0
bin	0.1	0
bin	0.13333333333333	0
bin	0.16666666666667	0
bin	0.2	0
bin	0.23333333333333	0
bin	0.26666666666667	0
bin	0.3	0
bin	0.33333333333333	0
bin	0.36666666666667	0
bin	0.4	0
bin	0.43333333333333	0
bin	0.46666666666667	0
bin	0.5	0
statistic LoRaNetworkTest.loRaNodes[8].LoRaNic.radio packetErrorRate:histogram
field count 0
field mean nan
field stddev nan
field min nan
field max nan
field sum 0
field sqrsum 0
attr source packetErrorRate
attr title "Packet error rate, histogram"
bin	-inf	0
bin	-0.5	0
bin	-0.46666666666667	0
bin	-0.43333333333333	0
bin	-0.4	0
bin	-0.36666666666667	0
bin	-0.33333333333333	0
bin	-0.3	0
bin	-0.26666666666667	0
bin	-0.23333333333333	0
bin	-0.2	0
bin	-0.16666666666667	0
bin	-0.13333333333333	0
bin	-0.1	0
bin	-0.066666666666667	0
bin	-0.033333333333333	0
bin	-6.9388939039072e-018	0
bin	0.033333333333333	0
bin	0.066666666666667	0
bin	0.1	0
bin	0.13333333333333	0
bin	0.16666666666667	0
bin	0.2	0
bin	0.23333333333333	0
bin	0.26666666666667	0
bin	0.3	0
bin	0.33333333333333	0
bin	0.36666666666667	0
bin	0.4	0
bin	0.43333333333333	0
bin	0.46666666666667	0
bin	0.5	0
statistic LoRaNetworkTest.loRaNodes[8].LoRaNic.radio minSNIR:histogram
field count 0
field mean nan
field stddev nan
field min nan
field max nan
field sum 0
field sqrsum 0
attr source minSNIR
attr title "Min SNIR, histogram"
bin	-inf	0
bin	-0.5	0
bin	-0.46666666666667	0
bin	-0.43333333333333	0
bin	-0.4	0
bin	-0.36666666666667	0
bin	-0.33333333333333	0
bin	-0.3	0
bin	-0.26666666666667	0
bin	-0.23333333333333	0
bin	-0.2	0
bin	-0.16666666666667	0
bin	-0.13333333333333	0
bin	-0.1	0
bin	-0.066666666666667	0
bin	-0.033333333333333	0
bin	-6.9388939039072e-018	0
bin	0.033333333333333	0
bin	0.066666666666667	0
bin	0.1	0
bin	0.13333333333333	0
bin	0.16666666666667	0
bin	0.2	0
bin	0.23333333333333	0
bin	0.26666666666667	0
bin	0.3	0
bin	0.33333333333333	0
bin	0.36666666666667	0
bin	0.4	0
bin	0.43333333333333	0
bin	0.46666666666667	0
bin	0.5	0
scalar LoRaNetworkTest.loRaNodes[8].LoRaNic.radio transmissionState:count 19416
attr interpolationmode sample-hold
attr source transmissionStateChanged
attr title "Radio transmission state, count"
scalar LoRaNetworkTest.loRaNodes[8].LoRaNic.radio receptionState:count 24236
attr interpolationmode sample-hold
attr source receptionStateChanged
attr title "Radio reception state, count"
scalar LoRaNetworkTest.loRaNodes[8].LoRaNic.radio radioMode:count 32739
attr interpolationmode sample-hold
attr source radioModeChanged
attr title "Radio mode, count"
scalar LoRaNetworkTest.loRaNodes[8].SimpleLoRaApp positionX 272.66139060259
scalar LoRaNetworkTest.loRaNodes[8].SimpleLoRaApp positionY 188.5367007181
scalar LoRaNetworkTest.loRaNodes[8].SimpleLoRaApp finalTP 7
scalar LoRaNetworkTest.loRaNodes[8].SimpleLoRaApp finalSF 7
scalar LoRaNetworkTest.loRaNodes[8].SimpleLoRaApp sentPackets 4854
scalar LoRaNetworkTest.loRaNodes[8].SimpleLoRaApp receivedADRCommands 0
scalar LoRaNetworkTest.loRaNodes[8].SimpleLoRaApp LoRa_AppPacketSent:count 4854
attr source LoRa_AppPacketSent
scalar LoRaNetworkTest.loRaNodes[9].LoRaNic.mac numRetry 0
scalar LoRaNetworkTest.loRaNodes[9].LoRaNic.mac numSentWithoutRetry 0
scalar LoRaNetworkTest.loRaNodes[9].LoRaNic.mac numGivenUp 0
scalar LoRaNetworkTest.loRaNodes[9].LoRaNic.mac numSent 5558
scalar LoRaNetworkTest.loRaNodes[9].LoRaNic.mac numReceived 0
scalar LoRaNetworkTest.loRaNodes[9].LoRaNic.mac numSentBroadcast 0
scalar LoRaNetworkTest.loRaNodes[9].LoRaNic.mac numReceivedBroadcast 0
scalar LoRaNetworkTest.loRaNodes[9].LoRaNic.radio.transmitter LoRaTransmissionCreated:count 4728
attr source LoRaTransmissionCreated
scalar LoRaNetworkTest.loRaNodes[9].LoRaNic.radio.receiver numCollisions 0
scalar LoRaNetworkTest.loRaNodes[9].LoRaNic.radio.receiver rcvBelowSensitivity 1332
scalar LoRaNetworkTest.loRaNodes[9].LoRaNic.radio.receiver LoRaReceptionCollision:count 0
attr source LoRaReceptionCollision
scalar LoRaNetworkTest.loRaNodes[9].LoRaNic.radio.energyConsumer totalEnergyConsumed 391.78272133427
statistic LoRaNetworkTest.loRaNodes[9].LoRaNic.radio symbolErrorRate:histogram
field count 0
field mean nan
field stddev nan
field min nan
field max nan
field sum 0
field sqrsum 0
attr source symbolErrorRate
attr title "Symbol error rate, histogram"
bin	-inf	0
bin	-0.5	0
bin	-0.46666666666667	0
bin	-0.43333333333333	0
bin	-0.4	0
bin	-0.36666666666667	0
bin	-0.33333333333333	0
bin	-0.3	0
bin	-0.26666666666667	0
bin	-0.23333333333333	0
bin	-0.2	0
bin	-0.16666666666667	0
bin	-0.13333333333333	0
bin	-0.1	0
bin	-0.066666666666667	0
bin	-0.033333333333333	0
bin	-6.9388939039072e-018	0
bin	0.033333333333333	0
bin	0.066666666666667	0
bin	0.1	0
bin	0.13333333333333	0
bin	0.16666666666667	0
bin	0.2	0
bin	0.23333333333333	0
bin	0.26666666666667	0
bin	0.3	0
bin	0.33333333333333	0
bin	0.36666666666667	0
bin	0.4	0
bin	0.43333333333333	0
bin	0.46666666666667	0
bin	0.5	0
statistic LoRaNetworkTest.loRaNodes[9].LoRaNic.radio bitErrorRate:histogram
field count 0
field mean nan
field stddev nan
field min nan
field max nan
field sum 0
field sqrsum 0
attr source bitErrorRate
attr title "Bit error rate, histogram"
bin	-inf	0
bin	-0.5	0
bin	-0.46666666666667	0
bin	-0.43333333333333	0
bin	-0.4	0
bin	-0.36666666666667	0
bin	-0.33333333333333	0
bin	-0.3	0
bin	-0.26666666666667	0
bin	-0.23333333333333	0
bin	-0.2	0
bin	-0.16666666666667	0
bin	-0.13333333333333	0
bin	-0.1	0
bin	-0.066666666666667	0
bin	-0.033333333333333	0
bin	-6.9388939039072e-018	0
bin	0.033333333333333	0
bin	0.066666666666667	0
bin	0.1	0
bin	0.13333333333333	0
bin	0.16666666666667	0
bin	0.2	0
bin	0.23333333333333	0
bin	0.26666666666667	0
bin	0.3	0
bin	0.33333333333333	0
bin	0.36666666666667	0
bin	0.4	0
bin	0.43333333333333	0
bin	0.46666666666667	0
bin	0.5	0
statistic LoRaNetworkTest.loRaNodes[9].LoRaNic.radio packetErrorRate:histogram
field count 0
field mean nan
field stddev nan
field min nan
field max nan
field sum 0
field sqrsum 0
attr source packetErrorRate
attr title "Packet error rate, histogram"
bin	-inf	0
bin	-0.5	0
bin	-0.46666666666667	0
bin	-0.43333333333333	0
bin	-0.4	0
bin	-0.36666666666667	0
bin	-0.33333333333333	0
bin	-0.3	0
bin	-0.26666666666667	0
bin	-0.23333333333333	0
bin	-0.2	0
bin	-0.16666666666667	0
bin	-0.13333333333333	0
bin	-0.1	0
bin	-0.066666666666667	0
bin	-0.033333333333333	0
bin	-6.9388939039072e-018	0
bin	0.033333333333333	0
bin	0.066666666666667	0
bin	0.1	0
bin	0.13333333333333	0
bin	0.16666666666667	0
bin	0.2	0
bin	0.23333333333333	0
bin	0.26666666666667	0
bin	0.3	0
bin	0.33333333333333	0
bin	0.36666666666667	0
bin	0.4	0
bin	0.43333333333333	0
bin	0.46666666666667	0
bin	0.5	0
statistic LoRaNetworkTest.loRaNodes[9].LoRaNic.radio minSNIR:histogram
field count 71
field mean 1.9327402447153
field stddev 0
field min 1.9327402447153
field max 1.9327402447153
field sum 137.22455737479
field sqrsum 265.21942460149
attr source minSNIR
attr title "Min SNIR, histogram"
bin	-inf	0
bin	1.4327402447153	0
bin	1.4660735780486	0
bin	1.499406911382	0
bin	1.5327402447153	0
bin	1.5660735780486	0
bin	1.599406911382	0
bin	1.6327402447153	0
bin	1.6660735780486	0
bin	1.699406911382	0
bin	1.7327402447153	0
bin	1.7660735780486	0
bin	1.799406911382	0
bin	1.8327402447153	0
bin	1.8660735780486	0
bin	1.899406911382	71
bin	1.9327402447153	0
bin	1.9660735780486	0
bin	1.999406911382	0
bin	2.0327402447153	0
bin	2.0660735780486	0
bin	2.099406911382	0
bin	2.1327402447153	0
bin	2.1660735780486	0
bin	2.199406911382	0
bin	2.2327402447153	0
bin	2.2660735780486	0
bin	2.299406911382	0
bin	2.3327402447153	0
bin	2.3660735780486	0
bin	2.399406911382	0
bin	2.4327402447153	0
scalar LoRaNetworkTest.loRaNodes[9].LoRaNic.radio transmissionState:count 18912
attr interpolationmode sample-hold
attr source transmissionStateChanged
attr title "Radio transmission state, count"
scalar LoRaNetworkTest.loRaNodes[9].LoRaNic.radio receptionState:count 23760
attr interpolationmode sample-hold
attr source receptionStateChanged
attr title "Radio reception state, count"
scalar LoRaNetworkTest.loRaNodes[9].LoRaNic.radio radioMode:count 31933
attr interpolationmode sample-hold
attr source radioModeChanged
attr title "Radio mode, count"
scalar LoRaNetworkTest.loRaNodes[9].SimpleLoRaApp positionX 401.31780903786
scalar LoRaNetworkTest.loRaNodes[9].SimpleLoRaApp positionY 34.097308181226
scalar LoRaNetworkTest.loRaNodes[9].SimpleLoRaApp finalTP 7
scalar LoRaNetworkTest.loRaNodes[9].SimpleLoRaApp finalSF 7
scalar LoRaNetworkTest.loRaNodes[9].SimpleLoRaApp sentPackets 4728
scalar LoRaNetworkTest.loRaNodes[9].SimpleLoRaApp receivedADRCommands 0
scalar LoRaNetworkTest.loRaNodes[9].SimpleLoRaApp LoRa_AppPacketSent:count 4728
attr source LoRa_AppPacketSent
scalar LoRaNetworkTest.loRaNodes[10].LoRaNic.mac numRetry 0
scalar LoRaNetworkTest.loRaNodes[10].LoRaNic.mac numSentWithoutRetry 0
scalar LoRaNetworkTest.loRaNodes[10].LoRaNic.mac numGivenUp 0
scalar LoRaNetworkTest.loRaNodes[10].LoRaNic.mac numSent 5628
scalar LoRaNetworkTest.loRaNodes[10].LoRaNic.mac numReceived 0
scalar LoRaNetworkTest.loRaNodes[10].LoRaNic.mac numSentBroadcast 0
scalar LoRaNetworkTest.loRaNodes[10].LoRaNic.mac numReceivedBroadcast 0
scalar LoRaNetworkTest.loRaNodes[10].LoRaNic.radio.transmitter LoRaTransmissionCreated:count 4812
attr source LoRaTransmissionCreated
scalar LoRaNetworkTest.loRaNodes[10].LoRaNic.radio.receiver numCollisions 0
scalar LoRaNetworkTest.loRaNodes[10].LoRaNic.radio.receiver rcvBelowSensitivity 1454
scalar LoRaNetworkTest.loRaNodes[10].LoRaNic.radio.receiver LoRaReceptionCollision:count 0
attr source LoRaReceptionCollision
scalar LoRaNetworkTest.loRaNodes[10].LoRaNic.radio.energyConsumer totalEnergyConsumed 396.69345966152
statistic LoRaNetworkTest.loRaNodes[10].LoRaNic.radio symbolErrorRate:histogram
field count 0
field mean nan
field stddev nan
field min nan
field max nan
field sum 0
field sqrsum 0
attr source symbolErrorRate
attr title "Symbol error rate, histogram"
bin	-inf	0
bin	-0.5	0
bin	-0.46666666666667	0
bin	-0.43333333333333	0
bin	-0.4	0
bin	-0.36666666666667	0
bin	-0.33333333333333	0
bin	-0.3	0
bin	-0.26666666666667	0
bin	-0.23333333333333	0
bin	-0.2	0
bin	-0.16666666666667	0
bin	-0.13333333333333	0
bin	-0.1	0
bin	-0.066666666666667	0
bin	-0.033333333333333	0
bin	-6.9388939039072e-018	0
bin	0.033333333333333	0
bin	0.066666666666667	0
bin	0.1	0
bin	0.13333333333333	0
bin	0.16666666666667	0
bin	0.2	0
bin	0.23333333333333	0
bin	0.26666666666667	0
bin	0.3	0
bin	0.33333333333333	0
bin	0.36666666666667	0
bin	0.4	0
bin	0.43333333333333	0
bin	0.46666666666667	0
bin	0.5	0
statistic LoRaNetworkTest.loRaNodes[10].LoRaNic.radio bitErrorRate:histogram
field count 0
field mean nan
field stddev nan
field min nan
field max nan
field sum 0
field sqrsum 0
attr source bitErrorRate
attr title "Bit error rate, histogram"
bin	-inf	0
bin	-0.5	0
bin	-0.46666666666667	0
bin	-0.43333333333333	0
bin	-0.4	0
bin	-0.36666666666667	0
bin	-0.33333333333333	0
bin	-0.3	0
bin	-0.26666666666667	0
bin	-0.23333333333333	0
bin	-0.2	0
bin	-0.16666666666667	0
bin	-0.13333333333333	0
bin	-0.1	0
bin	-0.066666666666667	0
bin	-0.033333333333333	0
bin	-6.9388939039072e-018	0
bin	0.033333333333333	0
bin	0.066666666666667	0
bin	0.1	0
bin	0.13333333333333	0
bin	0.16666666666667	0
bin	0.2	0
bin	0.23333333333333	0
bin	0.26666666666667	0
bin	0.3	0
bin	0.33333333333333	0
bin	0.36666666666667	0
bin	0.4	0
bin	0.43333333333333	0
bin	0.46666666666667	0
bin	0.5	0
statistic LoRaNetworkTest.loRaNodes[10].LoRaNic.radio packetErrorRate:histogram
field count 0
field mean nan
field stddev nan
field min nan
field max nan
field sum 0
field sqrsum 0
attr source packetErrorRate
attr title "Packet error rate, histogram"
bin	-inf	0
bin	-0.5	0
bin	-0.46666666666667	0
bin	-0.43333333333333	0
bin	-0.4	0
bin	-0.36666666666667	0
bin	-0.33333333333333	0
bin	-0.3	0
bin	-0.26666666666667	0
bin	-0.23333333333333	0
bin	-0.2	0
bin	-0.16666666666667	0
bin	-0.13333333333333	0
bin	-0.1	0
bin	-0.066666666666667	0
bin	-0.033333333333333	0
bin	-6.9388939039072e-018	0
bin	0.033333333333333	0
bin	0.066666666666667	0
bin	0.1	0
bin	0.13333333333333	0
bin	0.16666666666667	0
bin	0.2	0
bin	0.23333333333333	0
bin	0.26666666666667	0
bin	0.3	0
bin	0.33333333333333	0
bin	0.36666666666667	0
bin	0.4	0
bin	0.43333333333333	0
bin	0.46666666666667	0
bin	0.5	0
statistic LoRaNetworkTest.loRaNodes[10].LoRaNic.radio minSNIR:histogram
field count 0
field mean nan
field stddev nan
field min nan
field max nan
field sum 0
field sqrsum 0
attr source minSNIR
attr title "Min SNIR, histogram"
bin	-inf	0
bin	-0.5	0
bin	-0.46666666666667	0
bin	-0.43333333333333	0
bin	-0.4	0
bin	-0.36666666666667	0
bin	-0.33333333333333	0
bin	-0.3	0
bin	-0.26666666666667	0
bin	-0.23333333333333	0
bin	-0.2	0
bin	-0.16666666666667	0
bin	-0.13333333333333	0
bin	-0.1	0
bin	-0.066666666666667	0
bin	-0.033333333333333	0
bin	-6.9388939039072e-018	0
bin	0.033333333333333	0
bin	0.066666666666667	0
bin	0.1	0
bin	0.13333333333333	0
bin	0.16666666666667	0
bin	0.2	0
bin	0.23333333333333	0
bin	0.26666666666667	0
bin	0.3	0
bin	0.33333333333333	0
bin	0.36666666666667	0
bin	0.4	0
bin	0.43333333333333	0
bin	0.46666666666667	0
bin	0.5	0
scalar LoRaNetworkTest.loRaNodes[10].LoRaNic.radio transmissionState:count 19248
attr interpolationmode sample-hold
attr source transmissionStateChanged
attr title "Radio transmission state, count"
scalar LoRaNetworkTest.loRaNodes[10].LoRaNic.radio receptionState:count 24116
attr interpolationmode sample-hold
attr source receptionStateChanged
attr title "Radio reception state, count"
scalar LoRaNetworkTest.loRaNodes[10].LoRaNic.radio radioMode:count 32523
attr interpolationmode sample-hold
attr source radioModeChanged
attr title "Radio mode, count"
scalar LoRaNetworkTest.loRaNodes[10].SimpleLoRaApp positionX 41.822062544525
scalar LoRaNetworkTest.loRaNodes[10].SimpleLoRaApp positionY 311.12250074744
scalar LoRaNetworkTest.loRaNodes[10].SimpleLoRaApp finalTP 7
scalar LoRaNetworkTest.loRaNodes[10].SimpleLoRaApp finalSF 7
scalar LoRaNetworkTest.loRaNodes[10].SimpleLoRaApp sentPackets 4812
scalar LoRaNetworkTest.loRaNodes[10].SimpleLoRaApp receivedADRCommands 0
scalar LoRaNetworkTest.loRaNodes[10].SimpleLoRaApp LoRa_AppPacketSent:count 4812
attr source LoRa_AppPacketSent
scalar LoRaNetworkTest.loRaNodes[11].LoRaNic.mac numRetry 0
scalar LoRaNetworkTest.loRaNodes[11].LoRaNic.mac numSentWithoutRetry 0
scalar LoRaNetworkTest.loRaNodes[11].LoRaNic.mac numGivenUp 0
scalar LoRaNetworkTest.loRaNodes[11].LoRaNic.mac numSent 5798
scalar LoRaNetworkTest.loRaNodes[11].LoRaNic.mac numReceived 0
scalar LoRaNetworkTest.loRaNodes[11].LoRaNic.mac numSentBroadcast 0
scalar LoRaNetworkTest.loRaNodes[11].LoRaNic.mac numReceivedBroadcast 0
scalar LoRaNetworkTest.loRaNodes[11].LoRaNic.radio.transmitter LoRaTransmissionCreated:count 4969
attr source LoRaTransmissionCreated
scalar LoRaNetworkTest.loRaNodes[11].LoRaNic.radio.receiver numCollisions 0
scalar LoRaNetworkTest.loRaNodes[11].LoRaNic.radio.receiver rcvBelowSensitivity 1443
scalar LoRaNetworkTest.loRaNodes[11].LoRaNic.radio.receiver LoRaReceptionCollision:count 0
attr source LoRaReceptionCollision
scalar LoRaNetworkTest.loRaNodes[11].LoRaNic.radio.energyConsumer totalEnergyConsumed 408.68930042372
statistic LoRaNetworkTest.loRaNodes[11].LoRaNic.radio symbolErrorRate:histogram
field count 0
field mean nan
field stddev nan
field min nan
field max nan
field sum 0
field sqrsum 0
attr source symbolErrorRate
attr title "Symbol error rate, histogram"
bin	-inf	0
bin	-0.5	0
bin	-0.46666666666667	0
bin	-0.43333333333333	0
bin	-0.4	0
bin	-0.36666666666667	0
bin	-0.33333333333333	0
bin	-0.3	0
bin	-0.26666666666667	0
bin	-0.23333333333333	0
bin	-0.2	0
bin	-0.16666666666667	0
bin	-0.13333333333333	0
bin	-0.1	0
bin	-0.066666666666667	0
bin	-0.033333333333333	0
bin	-6.9388939039072e-018	0
bin	0.033333333333333	0
bin	0.066666666666667	0
bin	0.1	0
bin	0.13333333333333	0
bin	0.16666666666667	0
bin	0.2	0
bin	0.23333333333333	0
bin	0.26666666666667	0
bin	0.3	0
bin	0.33333333333333	0
bin	0.36666666666667	0
bin	0.4	0
bin	0.43333333333333	0
bin	0.46666666666667	0
bin	0.5	0
statistic LoRaNetworkTest.loRaNodes[11].LoRaNic.radio bitErrorRate:histogram
field count 0
field mean nan
field stddev nan
field min nan
field max nan
field sum 0
field sqrsum 0
attr source bitErrorRate
attr title "Bit error rate, histogram"
bin	-inf	0
bin	-0.5	0
bin	-0.46666666666667	0
bin	-0.43333333333333	0
bin	-0.4	0
bin	-0.36666666666667	0
bin	-0.33333333333333	0
bin	-0.3	0
bin	-0.26666666666667	0
bin	-0.23333333333333	0
bin	-0.2	0
bin	-0.16666666666667	0
bin	-0.13333333333333	0
bin	-0.1	0
bin	-0.066666666666667	0
bin	-0.033333333333333	0
bin	-6.9388939039072e-018	0
bin	0.033333333333333	0
bin	0.066666666666667	0
bin	0.1	0
bin	0.13333333333333	0
bin	0.16666666666667	0
bin	0.2	0
bin	0.23333333333333	0
bin	0.26666666666667	0
bin	0.3	0
bin	0.33333333333333	0
bin	0.36666666666667	0
bin	0.4	0
bin	0.43333333333333	0
bin	0.46666666666667	0
bin	0.5	0
statistic LoRaNetworkTest.loRaNodes[11].LoRaNic.radio packetErrorRate:histogram
field count 0
field mean nan
field stddev nan
field min nan
field max nan
field sum 0
field sqrsum 0
attr source packetErrorRate
attr title "Packet error rate, histogram"
bin	-inf	0
bin	-0.5	0
bin	-0.46666666666667	0
bin	-0.43333333333333	0
bin	-0.4	0
bin	-0.36666666666667	0
bin	-0.33333333333333	0
bin	-0.3	0
bin	-0.26666666666667	0
bin	-0.23333333333333	0
bin	-0.2	0
bin	-0.16666666666667	0
bin	-0.13333333333333	0
bin	-0.1	0
bin	-0.066666666666667	0
bin	-0.033333333333333	0
bin	-6.9388939039072e-018	0
bin	0.033333333333333	0
bin	0.066666666666667	0
bin	0.1	0
bin	0.13333333333333	0
bin	0.16666666666667	0
bin	0.2	0
bin	0.23333333333333	0
bin	0.26666666666667	0
bin	0.3	0
bin	0.33333333333333	0
bin	0.36666666666667	0
bin	0.4	0
bin	0.43333333333333	0
bin	0.46666666666667	0
bin	0.5	0
statistic LoRaNetworkTest.loRaNodes[11].LoRaNic.radio minSNIR:histogram
field count 0
field mean nan
field stddev nan
field min nan
field max nan
field sum 0
field sqrsum 0
attr source minSNIR
attr title "Min SNIR, histogram"
bin	-inf	0
bin	-0.5	0
bin	-0.46666666666667	0
bin	-0.43333333333333	0
bin	-0.4	0
bin	-0.36666666666667	0
bin	-0.33333333333333	0
bin	-0.3	0
bin	-0.26666666666667	0
bin	-0.23333333333333	0
bin	-0.2	0
bin	-0.16666666666667	0
bin	-0.13333333333333	0
bin	-0.1	0
bin	-0.066666666666667	0
bin	-0.033333333333333	0
bin	-6.9388939039072e-018	0
bin	0.033333333333333	0
bin	0.066666666666667	0
bin	0.1	0
bin	0.13333333333333	0
bin	0.16666666666667	0
bin	0.2	0
bin	0.23333333333333	0
bin	0.26666666666667	0
bin	0.3	0
bin	0.33333333333333	0
bin	0.36666666666667	0
bin	0.4	0
bin	0.43333333333333	0
bin	0.46666666666667	0
bin	0.5	0
scalar LoRaNetworkTest.loRaNodes[11].LoRaNic.radio transmissionState:count 19876
attr interpolationmode sample-hold
attr source transmissionStateChanged
attr title "Radio transmission state, count"
scalar LoRaNetworkTest.loRaNodes[11].LoRaNic.radio receptionState:count 24800
attr interpolationmode sample-hold
attr source receptionStateChanged
attr title "Radio reception state, count"
scalar LoRaNetworkTest.loRaNodes[11].LoRaNic.radio radioMode:count 33507
attr interpolationmode sample-hold
attr source radioModeChanged
attr title "Radio mode, count"
scalar LoRaNetworkTest.loRaNodes[11].SimpleLoRaApp positionX 176.75593793392
scalar LoRaNetworkTest.loRaNodes[11].SimpleLoRaApp positionY 399.65752456337
scalar LoRaNetworkTest.loRaNodes[11].SimpleLoRaApp finalTP 7
scalar LoRaNetworkTest.loRaNodes[11].SimpleLoRaApp finalSF 7
scalar LoRaNetworkTest.loRaNodes[11].SimpleLoRaApp sentPackets 4969
scalar LoRaNetworkTest.loRaNodes[11].SimpleLoRaApp receivedADRCommands 0
scalar LoRaNetworkTest.loRaNodes[11].SimpleLoRaApp LoRa_AppPacketSent:count 4969
attr source LoRa_AppPacketSent
scalar LoRaNetworkTest.loRaNodes[12].LoRaNic.mac numRetry 0
scalar LoRaNetworkTest.loRaNodes[12].LoRaNic.mac numSentWithoutRetry 0
scalar LoRaNetworkTest.loRaNodes[12].LoRaNic.mac numGivenUp 0
scalar LoRaNetworkTest.loRaNodes[12].LoRaNic.mac numSent 5523
scalar LoRaNetworkTest.loRaNodes[12].LoRaNic.mac numReceived 0
scalar LoRaNetworkTest.loRaNodes[12].LoRaNic.mac numSentBroadcast 0
scalar LoRaNetworkTest.loRaNodes[12].LoRaNic.mac numReceivedBroadcast 0
scalar LoRaNetworkTest.loRaNodes[12].LoRaNic.radio.transmitter LoRaTransmissionCreated:count 4749
attr source LoRaTransmissionCreated
scalar LoRaNetworkTest.loRaNodes[12].LoRaNic.radio.receiver numCollisions 0
scalar LoRaNetworkTest.loRaNodes[12].LoRaNic.radio.receiver rcvBelowSensitivity 1347
scalar LoRaNetworkTest.loRaNodes[12].LoRaNic.radio.receiver LoRaReceptionCollision:count 0
attr source LoRaReceptionCollision
scalar LoRaNetworkTest.loRaNodes[12].LoRaNic.radio.energyConsumer totalEnergyConsumed 389.30400741617
statistic LoRaNetworkTest.loRaNodes[12].LoRaNic.radio symbolErrorRate:histogram
field count 0
field mean nan
field stddev nan
field min nan
field max nan
field sum 0
field sqrsum 0
attr source symbolErrorRate
attr title "Symbol error rate, histogram"
bin	-inf	0
bin	-0.5	0
bin	-0.46666666666667	0
bin	-0.43333333333333	0
bin	-0.4	0
bin	-0.36666666666667	0
bin	-0.33333333333333	0
bin	-0.3	0
bin	-0.26666666666667	0
bin	-0.23333333333333	0
bin	-0.2	0
bin	-0.16666666666667	0
bin	-0.13333333333333	0
bin	-0.1	0
bin	-0.066666666666667	0
bin	-0.033333333333333	0
bin	-6.9388939039072e-018	0
bin	0.033333333333333	0
bin	0.066666666666667	0
bin	0.1	0
bin	0.13333333333333	0
bin	0.16666666666667	0
bin	0.2	0
bin	0.23333333333333	0
bin	0.26666666666667	0
bin	0.3	0
bin	0.33333333333333	0
bin	0.36666666666667	0
bin	0.4	0
bin	0.43333333333333	0
bin	0.46666666666667	0
bin	0.5	0
statistic LoRaNetworkTest.loRaNodes[12].LoRaNic.radio bitErrorRate:histogram
field count 0
field mean nan
field stddev nan
field min nan
field max nan
field sum 0
field sqrsum 0
attr source bitErrorRate
attr title "Bit error rate, histogram"
bin	-inf	0
bin	-0.5	0
bin	-0.46666666666667	0
bin	-0.43333333333333	0
bin	-0.4	0
bin	-0.36666666666667	0
bin	-0.33333333333333	0
bin	-0.3	0
bin	-0.26666666666667	0
bin	-0.23333333333333	0
bin	-0.2	0
bin	-0.16666666666667	0
bin	-0.13333333333333	0
bin	-0.1	0
bin	-0.066666666666667	0
bin	-0.033333333333333	0
bin	-6.9388939039072e-018	0
bin	0.033333333333333	0
bin	0.066666666666667	0
bin	0.1	0
bin	0.13333333333333	0
bin	0.16666666666667	0
bin	0.2	0
bin	0.23333333333333	0
bin	0.26666666666667	0
bin	0.3	0
bin	0.33333333333333	0
bin	0.36666666666667	0
bin	0.4	0
bin	0.43333333333333	0
bin	0.46666666666667	0
bin	0.5	0
statistic LoRaNetworkTest.loRaNodes[12].LoRaNic.radio packetErrorRate:histogram
field count 0
field mean nan
field stddev nan
field min nan
field max nan
field sum 0
field sqrsum 0
attr source packetErrorRate
attr title "Packet error rate, histogram"
bin	-inf	0
bin	-0.5	0
bin	-0.46666666666667	0
bin	-0.43333333333333	0
bin	-0.4	0
bin	-0.36666666666667	0
bin	-0.33333333333333	0
bin	-0.3	0
bin	-0.26666666666667	0
bin	-0.23333333333333	0
bin	-0.2	0
bin	-0.16666666666667	0
bin	-0.13333333333333	0
bin	-0.1	0
bin	-0.066666666666667	0
bin	-0.033333333333333	0
bin	-6.9388939039072e-018	0
bin	0.033333333333333	0
bin	0.066666666666667	0
bin	0.1	0
bin	0.13333333333333	0
bin	0.16666666666667	0
bin	0.2	0
bin	0.23333333333333	0
bin	0.26666666666667	0
bin	0.3	0
bin	0.33333333333333	0
bin	0.36666666666667	0
bin	0.4	0
bin	0.43333333333333	0
bin	0.46666666666667	0
bin	0.5	0
statistic LoRaNetworkTest.loRaNodes[12].LoRaNic.radio minSNIR:histogram
field count 84
field mean 1.9306481175633
field stddev 0.019174662074867
field min 1.7570015639482
field max 1.9327402447153
field sum 162.17444187532
field sqrsum 313.13229733971
attr source minSNIR
attr title "Min SNIR, histogram"
bin	-inf	0
bin	1.6691322235647	0
bin	1.6808481356158	0
bin	1.692564047667	0
bin	1.7042799597181	0
bin	1.7159958717692	0
bin	1.7277117838204	0
bin	1.7394276958715	0
bin	1.7511436079227	1
bin	1.7628595199738	0
bin	1.7745754320249	0
bin	1.7862913440761	0
bin	1.7980072561272	0
bin	1.8097231681783	0
bin	1.8214390802295	0
bin	1.8331549922806	0
bin	1.8448709043318	0
bin	1.8565868163829	0
bin	1.868302728434	0
bin	1.8800186404852	0
bin	1.8917345525363	0
bin	1.9034504645874	0
bin	1.9151663766386	0
bin	1.9268822886897	83
bin	1.9385982007409	0
bin	1.950314112792	0
bin	1.9620300248431	0
bin	1.9737459368943	0
bin	1.9854618489454	0
bin	1.9971777609965	0
bin	2.0088936730477	0
bin	2.0206095850988	0
scalar LoRaNetworkTest.loRaNodes[12].LoRaNic.radio transmissionState:count 18996
attr interpolationmode sample-hold
attr source transmissionStateChanged
attr title "Radio transmission state, count"
scalar LoRaNetworkTest.loRaNodes[12].LoRaNic.radio receptionState:count 24040
attr interpolationmode sample-hold
attr source receptionStateChanged
attr title "Radio reception state, count"
scalar LoRaNetworkTest.loRaNodes[12].LoRaNic.radio radioMode:count 32193
attr interpolationmode sample-hold
attr source radioModeChanged
attr title "Radio mode, count"
scalar LoRaNetworkTest.loRaNodes[12].SimpleLoRaApp positionX 373.51524330676
scalar LoRaNetworkTest.loRaNodes[12].SimpleLoRaApp positionY 67.368373163044
scalar LoRaNetworkTest.loRaNodes[12].SimpleLoRaApp finalTP 7
scalar LoRaNetworkTest.loRaNodes[12].SimpleLoRaApp finalSF 7
scalar LoRaNetworkTest.loRaNodes[12].SimpleLoRaApp sentPackets 4749
scalar LoRaNetworkTest.loRaNodes[12].SimpleLoRaApp receivedADRCommands 0
scalar LoRaNetworkTest.loRaNodes[12].SimpleLoRaApp LoRa_AppPacketSent:count 4749
attr source LoRa_AppPacketSent
scalar LoRaNetworkTest.loRaNodes[13].LoRaNic.mac numRetry 0
scalar LoRaNetworkTest.loRaNodes[13].LoRaNic.mac numSentWithoutRetry 0
scalar LoRaNetworkTest.loRaNodes[13].LoRaNic.mac numGivenUp 0
scalar LoRaNetworkTest.loRaNodes[13].LoRaNic.mac numSent 5656
scalar LoRaNetworkTest.loRaNodes[13].LoRaNic.mac numReceived 0
scalar LoRaNetworkTest.loRaNodes[13].LoRaNic.mac numSentBroadcast 0
scalar LoRaNetworkTest.loRaNodes[13].LoRaNic.mac numReceivedBroadcast 0
scalar LoRaNetworkTest.loRaNodes[13].LoRaNic.radio.transmitter LoRaTransmissionCreated:count 4852
attr source LoRaTransmissionCreated
scalar LoRaNetworkTest.loRaNodes[13].LoRaNic.radio.receiver numCollisions 0
scalar LoRaNetworkTest.loRaNodes[13].LoRaNic.radio.receiver rcvBelowSensitivity 1445
scalar LoRaNetworkTest.loRaNodes[13].LoRaNic.radio.receiver LoRaReceptionCollision:count 0
attr source LoRaReceptionCollision
scalar LoRaNetworkTest.loRaNodes[13].LoRaNic.radio.energyConsumer totalEnergyConsumed 398.68743338122
statistic LoRaNetworkTest.loRaNodes[13].LoRaNic.radio symbolErrorRate:histogram
field count 0
field mean nan
field stddev nan
field min nan
field max nan
field sum 0
field sqrsum 0
attr source symbolErrorRate
attr title "Symbol error rate, histogram"
bin	-inf	0
bin	-0.5	0
bin	-0.46666666666667	0
bin	-0.43333333333333	0
bin	-0.4	0
bin	-0.36666666666667	0
bin	-0.33333333333333	0
bin	-0.3	0
bin	-0.26666666666667	0
bin	-0.23333333333333	0
bin	-0.2	0
bin	-0.16666666666667	0
bin	-0.13333333333333	0
bin	-0.1	0
bin	-0.066666666666667	0
bin	-0.033333333333333	0
bin	-6.9388939039072e-018	0
bin	0.033333333333333	0
bin	0.066666666666667	0
bin	0.1	0
bin	0.13333333333333	0
bin	0.16666666666667	0
bin	0.2	0
bin	0.23333333333333	0
bin	0.26666666666667	0
bin	0.3	0
bin	0.33333333333333	0
bin	0.36666666666667	0
bin	0.4	0
bin	0.43333333333333	0
bin	0.46666666666667	0
bin	0.5	0
statistic LoRaNetworkTest.loRaNodes[13].LoRaNic.radio bitErrorRate:histogram
field count 0
field mean nan
field stddev nan
field min nan
field max nan
field sum 0
field sqrsum 0
attr source bitErrorRate
attr title "Bit error rate, histogram"
bin	-inf	0
bin	-0.5	0
bin	-0.46666666666667	0
bin	-0.43333333333333	0
bin	-0.4	0
[...]
attr title "packets dropped/bit error, sum(packetBytes)"
scalar LoRaNetworkTest.gwRouter[0].lo0.lo rcvdPkFromHL:count 0
attr interpolationmode none
attr source packetReceivedFromUpper
attr title "packets received from higher layer, count"
scalar LoRaNetworkTest.gwRouter[0].lo0.lo rcvdPkFromHL:sum(packetBytes) 0
attr interpolationmode none
attr source packetReceivedFromUpper
attr title "packets received from higher layer, sum(packetBytes)"
scalar LoRaNetworkTest.gwRouter[0].lo0.lo passedUpPk:count 0
attr interpolationmode none
attr source packetSentToUpper
attr title "packets passed to higher layer, count"
scalar LoRaNetworkTest.gwRouter[0].lo0.lo passedUpPk:sum(packetBytes) 0
attr interpolationmode none
attr source packetSentToUpper
attr title "packets passed to higher layer, sum(packetBytes)"
scalar LoRaNetworkTest.gwRouter[0].eth[0].mac "simulated time" 604800
scalar LoRaNetworkTest.gwRouter[0].eth[0].mac full-duplex 1
scalar LoRaNetworkTest.gwRouter[0].eth[0].mac "frames/sec sent" 0.005854828042328
scalar LoRaNetworkTest.gwRouter[0].eth[0].mac "frames/sec rcvd" 0.02417328042328
scalar LoRaNetworkTest.gwRouter[0].eth[0].mac "bits/sec sent" 2.997671957672
scalar LoRaNetworkTest.gwRouter[0].eth[0].mac "bits/sec rcvd" 12.37671957672
scalar LoRaNetworkTest.gwRouter[0].eth[0].mac "rx channel idle (%)" 99.999998607619
scalar LoRaNetworkTest.gwRouter[0].eth[0].mac "rx channel utilization (%)" 1.392380952381e-006
scalar LoRaNetworkTest.gwRouter[0].eth[0].mac rxPkFromHL:count 3038
attr interpolationmode none
attr source rxPkFromHL
attr title "packet bytes from higher layer, count"
scalar LoRaNetworkTest.gwRouter[0].eth[0].mac rxPkFromHL:sum(packetBytes) 194432
attr interpolationmode none
attr source rxPkFromHL
attr title "packet bytes from higher layer, sum(packetBytes)"
scalar LoRaNetworkTest.gwRouter[0].eth[0].mac rxPausePkUnits:count 0
attr interpolationmode none
attr title "pause units received, count"
scalar LoRaNetworkTest.gwRouter[0].eth[0].mac rxPausePkUnits:sum 0
attr interpolationmode none
attr title "pause units received, sum"
scalar LoRaNetworkTest.gwRouter[0].eth[0].mac txPausePkUnits:count 0
attr interpolationmode none
attr title "pause units sent, count"
scalar LoRaNetworkTest.gwRouter[0].eth[0].mac txPausePkUnits:sum 0
attr interpolationmode none
attr title "pause units sent, sum"
scalar LoRaNetworkTest.gwRouter[0].eth[0].mac txPk:count 3038
attr interpolationmode none
attr source txPk
attr title "packets transmitted, count"
scalar LoRaNetworkTest.gwRouter[0].eth[0].mac txPk:sum(packetBytes) 194432
attr interpolationmode none
attr source txPk
attr title "packets transmitted, sum(packetBytes)"
scalar LoRaNetworkTest.gwRouter[0].eth[0].mac droppedPkNotForUs:count 0
attr interpolationmode none
attr source dropPkNotForUs
attr title "packets dropped/not for us, count"
scalar LoRaNetworkTest.gwRouter[0].eth[0].mac droppedPkNotForUs:sum(packetBytes) 0
attr interpolationmode none
attr source dropPkNotForUs
attr title "packets dropped/not for us, sum(packetBytes)"
scalar LoRaNetworkTest.gwRouter[0].eth[0].mac droppedPkBitError:count 0
attr interpolationmode none
attr source dropPkBitError
attr title "packets dropped/bit error, count"
scalar LoRaNetworkTest.gwRouter[0].eth[0].mac droppedPkBitError:sum(packetBytes) 0
attr interpolationmode none
attr source dropPkBitError
attr title "packets dropped/bit error, sum(packetBytes)"
scalar LoRaNetworkTest.gwRouter[0].eth[0].mac droppedPkIfaceDown:count 0
attr interpolationmode none
attr source dropPkIfaceDown
attr title "packets dropped/interface down, count"
scalar LoRaNetworkTest.gwRouter[0].eth[0].mac droppedPkIfaceDown:sum(packetBytes) 0
attr interpolationmode none
attr source dropPkIfaceDown
attr title "packets dropped/interface down, sum(packetBytes)"
scalar LoRaNetworkTest.gwRouter[0].eth[0].mac rxPkOk:count 12557
attr interpolationmode none
attr source rxPkOk
attr title "packets received OK, count"
scalar LoRaNetworkTest.gwRouter[0].eth[0].mac rxPkOk:sum(packetBytes) 803648
attr interpolationmode none
attr source rxPkOk
attr title "packets received OK, sum(packetBytes)"
scalar LoRaNetworkTest.gwRouter[0].eth[0].mac passedUpPk:count 12557
attr interpolationmode none
attr source packetSentToUpper
attr title "packets passed to higher layer, count"
scalar LoRaNetworkTest.gwRouter[0].eth[0].mac passedUpPk:sum(packetBytes) 803648
attr interpolationmode none
attr source packetSentToUpper
attr title "packets passed to higher layer, sum(packetBytes)"
scalar LoRaNetworkTest.gwRouter[0].eth[0].encap pauseSent:count 0
attr title "pause sent, count"
scalar LoRaNetworkTest.gwRouter[0].eth[0].encap pauseSent:sum 0
attr title "pause sent, sum"
scalar LoRaNetworkTest.gwRouter[0].eth[0].encap decapPk:count 12557
attr interpolationmode none
attr source decapPk
attr title "packets decapsulated, count"
scalar LoRaNetworkTest.gwRouter[0].eth[0].encap decapPk:sum(packetBytes) 427748
attr interpolationmode none
attr source decapPk
attr title "packets decapsulated, sum(packetBytes)"
scalar LoRaNetworkTest.gwRouter[0].eth[0].encap encapPk:count 3038
attr interpolationmode none
attr source encapPk
attr title "packets encapsulated, count"
scalar LoRaNetworkTest.gwRouter[0].eth[0].encap encapPk:sum(packetBytes) 85064
attr interpolationmode none
attr source encapPk
attr title "packets encapsulated, sum(packetBytes)"
scalar LoRaNetworkTest.gwRouter[0].ppp[0].queue queueLength:max nan
attr interpolationmode sample-hold
attr title "queue length, max"
scalar LoRaNetworkTest.gwRouter[0].ppp[0].queue queueLength:timeavg nan
attr interpolationmode sample-hold
attr title "queue length, timeavg"
statistic LoRaNetworkTest.gwRouter[0].ppp[0].queue queueingTime:histogram
field count 9519
field mean 0
field stddev 0
field min 0
field max 0
field sum 0
field sqrsum 0
attr interpolationmode none
attr title "queueing time, histogram"
bin	-inf	0
bin	-0.5	0
bin	-0.46666666666667	0
bin	-0.43333333333333	0
bin	-0.4	0
bin	-0.36666666666667	0
bin	-0.33333333333333	0
bin	-0.3	0
bin	-0.26666666666667	0
bin	-0.23333333333333	0
bin	-0.2	0
bin	-0.16666666666667	0
bin	-0.13333333333333	0
bin	-0.1	0
bin	-0.066666666666667	0
bin	-0.033333333333333	0
bin	-6.9388939039072e-018	9519
bin	0.033333333333333	0
bin	0.066666666666667	0
bin	0.1	0
bin	0.13333333333333	0
bin	0.16666666666667	0
bin	0.2	0
bin	0.23333333333333	0
bin	0.26666666666667	0
bin	0.3	0
bin	0.33333333333333	0
bin	0.36666666666667	0
bin	0.4	0
bin	0.43333333333333	0
bin	0.46666666666667	0
bin	0.5	0
scalar LoRaNetworkTest.gwRouter[0].ppp[0].queue dropPk:count 0
attr interpolationmode none
attr source dropPkByQueue
attr title "dropped packets, count"
scalar LoRaNetworkTest.gwRouter[0].ppp[0].queue dropPk:sum(packetBytes) 0
attr interpolationmode none
attr source dropPkByQueue
attr title "dropped packets, sum(packetBytes)"
scalar LoRaNetworkTest.gwRouter[0].ppp[0].queue rcvdPk:count 9519
attr interpolationmode none
attr title "received packets, count"
scalar LoRaNetworkTest.gwRouter[0].ppp[0].queue rcvdPk:sum(packetBytes) 342684
attr interpolationmode none
attr title "received packets, sum(packetBytes)"
scalar LoRaNetworkTest.gwRouter[0].ppp[0].ppp droppedPkBitError:count 0
attr interpolationmode none
attr source dropPkBitError
attr title "packets dropped/bit error, count"
scalar LoRaNetworkTest.gwRouter[0].ppp[0].ppp droppedPkBitError:sum(packetBytes) 0
attr interpolationmode none
attr source dropPkBitError
attr title "packets dropped/bit error, sum(packetBytes)"
scalar LoRaNetworkTest.gwRouter[0].ppp[0].ppp droppedPkIfaceDown:count 0
attr interpolationmode none
attr source dropPkIfaceDown
attr title "packets dropped/interface down, count"
scalar LoRaNetworkTest.gwRouter[0].ppp[0].ppp droppedPkIfaceDown:sum(packetBytes) 0
attr interpolationmode none
attr source dropPkIfaceDown
attr title "packets dropped/interface down, sum(packetBytes)"
scalar LoRaNetworkTest.gwRouter[0].ppp[0].ppp rxPkOk:count 0
attr interpolationmode none
attr source rxPkOk
attr title "packets received OK, count"
scalar LoRaNetworkTest.gwRouter[0].ppp[0].ppp rxPkOk:sum(packetBytes) 0
attr interpolationmode none
attr source rxPkOk
attr title "packets received OK, sum(packetBytes)"
scalar LoRaNetworkTest.gwRouter[0].ppp[0].ppp txState:timeavg 6.3177473990338e-009
attr interpolationmode sample-hold
attr title "tx state, timeavg"
scalar LoRaNetworkTest.gwRouter[0].ppp[0].ppp rcvdPkFromHL:count 9519
attr interpolationmode none
attr source packetReceivedFromUpper
attr title "packets received from higher layer, count"
scalar LoRaNetworkTest.gwRouter[0].ppp[0].ppp rcvdPkFromHL:sum(packetBytes) 342684
attr interpolationmode none
attr source packetReceivedFromUpper
attr title "packets received from higher layer, sum(packetBytes)"
scalar LoRaNetworkTest.gwRouter[0].ppp[0].ppp passedUpPk:count 0
attr interpolationmode none
attr source packetSentToUpper
attr title "packets passed to higher layer, count"
scalar LoRaNetworkTest.gwRouter[0].ppp[0].ppp passedUpPk:sum(packetBytes) 0
attr interpolationmode none
attr source packetSentToUpper
attr title "packets passed to higher layer, sum(packetBytes)"
scalar LoRaNetworkTest.gwRouter[0].ppp[0].ppp txPk:count 9519
attr interpolationmode none
attr source packetSentToLower
attr title "packets transmitted, count"
scalar LoRaNetworkTest.gwRouter[0].ppp[0].ppp txPk:sum(packetBytes) 409317
attr interpolationmode none
attr source packetSentToLower
attr title "packets transmitted, sum(packetBytes)"
scalar LoRaNetworkTest.nsRouter.networkLayer.arp sentReply:count 0
attr title "ARP replies sent, count"
scalar LoRaNetworkTest.nsRouter.networkLayer.arp sentReq:count 3038
attr title "ARP request sent, count"
scalar LoRaNetworkTest.nsRouter.networkLayer.arp failedARPResolution:count 0
attr title "ARP failed resolutions, count"
scalar LoRaNetworkTest.nsRouter.networkLayer.arp completedARPResolution:count 3038
attr title "ARP completed resolutions, count"
scalar LoRaNetworkTest.nsRouter.networkLayer.arp initiatedARPResolution:count 3038
attr title "ARP initiated resolutions, count"
scalar LoRaNetworkTest.nsRouter.lo0.lo droppedPkBitError:count 0
attr interpolationmode none
attr source dropPkBitError
attr title "packets dropped/bit error, count"
scalar LoRaNetworkTest.nsRouter.lo0.lo droppedPkBitError:sum(packetBytes) 0
attr interpolationmode none
attr source dropPkBitError
attr title "packets dropped/bit error, sum(packetBytes)"
scalar LoRaNetworkTest.nsRouter.lo0.lo rcvdPkFromHL:count 0
attr interpolationmode none
attr source packetReceivedFromUpper
attr title "packets received from higher layer, count"
scalar LoRaNetworkTest.nsRouter.lo0.lo rcvdPkFromHL:sum(packetBytes) 0
attr interpolationmode none
attr source packetReceivedFromUpper
attr title "packets received from higher layer, sum(packetBytes)"
scalar LoRaNetworkTest.nsRouter.lo0.lo passedUpPk:count 0
attr interpolationmode none
attr source packetSentToUpper
attr title "packets passed to higher layer, count"
scalar LoRaNetworkTest.nsRouter.lo0.lo passedUpPk:sum(packetBytes) 0
attr interpolationmode none
attr source packetSentToUpper
attr title "packets passed to higher layer, sum(packetBytes)"
scalar LoRaNetworkTest.nsRouter.eth[0].mac "simulated time" 604800
scalar LoRaNetworkTest.nsRouter.eth[0].mac full-duplex 1
scalar LoRaNetworkTest.nsRouter.eth[0].mac "frames/sec sent" 0.02417328042328
scalar LoRaNetworkTest.nsRouter.eth[0].mac "frames/sec rcvd" 0.005854828042328
scalar LoRaNetworkTest.nsRouter.eth[0].mac "bits/sec sent" 12.37671957672
scalar LoRaNetworkTest.nsRouter.eth[0].mac "bits/sec rcvd" 2.997671957672
scalar LoRaNetworkTest.nsRouter.eth[0].mac "rx channel idle (%)" 99.999999662762
scalar LoRaNetworkTest.nsRouter.eth[0].mac "rx channel utilization (%)" 3.372380952381e-007
scalar LoRaNetworkTest.nsRouter.eth[0].mac rxPkFromHL:count 12557
attr interpolationmode none
attr source rxPkFromHL
attr title "packet bytes from higher layer, count"
scalar LoRaNetworkTest.nsRouter.eth[0].mac rxPkFromHL:sum(packetBytes) 803648
attr interpolationmode none
attr source rxPkFromHL
attr title "packet bytes from higher layer, sum(packetBytes)"
scalar LoRaNetworkTest.nsRouter.eth[0].mac rxPausePkUnits:count 0
attr interpolationmode none
attr title "pause units received, count"
scalar LoRaNetworkTest.nsRouter.eth[0].mac rxPausePkUnits:sum 0
attr interpolationmode none
attr title "pause units received, sum"
scalar LoRaNetworkTest.nsRouter.eth[0].mac txPausePkUnits:count 0
attr interpolationmode none
attr title "pause units sent, count"
scalar LoRaNetworkTest.nsRouter.eth[0].mac txPausePkUnits:sum 0
attr interpolationmode none
attr title "pause units sent, sum"
scalar LoRaNetworkTest.nsRouter.eth[0].mac txPk:count 12557
attr interpolationmode none
attr source txPk
attr title "packets transmitted, count"
scalar LoRaNetworkTest.nsRouter.eth[0].mac txPk:sum(packetBytes) 803648
attr interpolationmode none
attr source txPk
attr title "packets transmitted, sum(packetBytes)"
scalar LoRaNetworkTest.nsRouter.eth[0].mac droppedPkNotForUs:count 0
attr interpolationmode none
attr source dropPkNotForUs
attr title "packets dropped/not for us, count"
scalar LoRaNetworkTest.nsRouter.eth[0].mac droppedPkNotForUs:sum(packetBytes) 0
attr interpolationmode none
attr source dropPkNotForUs
attr title "packets dropped/not for us, sum(packetBytes)"
scalar LoRaNetworkTest.nsRouter.eth[0].mac droppedPkBitError:count 0
attr interpolationmode none
attr source dropPkBitError
attr title "packets dropped/bit error, count"
scalar LoRaNetworkTest.nsRouter.eth[0].mac droppedPkBitError:sum(packetBytes) 0
attr interpolationmode none
attr source dropPkBitError
attr title "packets dropped/bit error, sum(packetBytes)"
scalar LoRaNetworkTest.nsRouter.eth[0].mac droppedPkIfaceDown:count 0
attr interpolationmode none
attr source dropPkIfaceDown
attr title "packets dropped/interface down, count"
scalar LoRaNetworkTest.nsRouter.eth[0].mac droppedPkIfaceDown:sum(packetBytes) 0
attr interpolationmode none
attr source dropPkIfaceDown
attr title "packets dropped/interface down, sum(packetBytes)"
scalar LoRaNetworkTest.nsRouter.eth[0].mac rxPkOk:count 3038
attr interpolationmode none
attr source rxPkOk
attr title "packets received OK, count"
scalar LoRaNetworkTest.nsRouter.eth[0].mac rxPkOk:sum(packetBytes) 194432
attr interpolationmode none
attr source rxPkOk
attr title "packets received OK, sum(packetBytes)"
scalar LoRaNetworkTest.nsRouter.eth[0].mac passedUpPk:count 3038
attr interpolationmode none
attr source packetSentToUpper
attr title "packets passed to higher layer, count"
scalar LoRaNetworkTest.nsRouter.eth[0].mac passedUpPk:sum(packetBytes) 194432
attr interpolationmode none
attr source packetSentToUpper
attr title "packets passed to higher layer, sum(packetBytes)"
scalar LoRaNetworkTest.nsRouter.eth[0].encap pauseSent:count 0
attr title "pause sent, count"
scalar LoRaNetworkTest.nsRouter.eth[0].encap pauseSent:sum 0
attr title "pause sent, sum"
scalar LoRaNetworkTest.nsRouter.eth[0].encap decapPk:count 3038
attr interpolationmode none
attr source decapPk
attr title "packets decapsulated, count"
scalar LoRaNetworkTest.nsRouter.eth[0].encap decapPk:sum(packetBytes) 85064
attr interpolationmode none
attr source decapPk
attr title "packets decapsulated, sum(packetBytes)"
scalar LoRaNetworkTest.nsRouter.eth[0].encap encapPk:count 12557
attr interpolationmode none
attr source encapPk
attr title "packets encapsulated, count"
scalar LoRaNetworkTest.nsRouter.eth[0].encap encapPk:sum(packetBytes) 427748
attr interpolationmode none
attr source encapPk
attr title "packets encapsulated, sum(packetBytes)"
scalar LoRaNetworkTest.nsRouter.ppp[0].queue queueLength:max nan
attr interpolationmode sample-hold
attr title "queue length, max"
scalar LoRaNetworkTest.nsRouter.ppp[0].queue queueLength:timeavg nan
attr interpolationmode sample-hold
attr title "queue length, timeavg"
statistic LoRaNetworkTest.nsRouter.ppp[0].queue queueingTime:histogram
field count 0
field mean nan
field stddev nan
field min nan
field max nan
field sum 0
field sqrsum 0
attr interpolationmode none
attr title "queueing time, histogram"
bin	-inf	0
bin	-0.5	0
bin	-0.46666666666667	0
bin	-0.43333333333333	0
bin	-0.4	0
bin	-0.36666666666667	0
bin	-0.33333333333333	0
bin	-0.3	0
bin	-0.26666666666667	0
bin	-0.23333333333333	0
bin	-0.2	0
bin	-0.16666666666667	0
bin	-0.13333333333333	0
bin	-0.1	0
bin	-0.066666666666667	0
bin	-0.033333333333333	0
bin	-6.9388939039072e-018	0
bin	0.033333333333333	0
bin	0.066666666666667	0
bin	0.1	0
bin	0.13333333333333	0
bin	0.16666666666667	0
bin	0.2	0
bin	0.23333333333333	0
bin	0.26666666666667	0
bin	0.3	0
bin	0.33333333333333	0
bin	0.36666666666667	0
bin	0.4	0
bin	0.43333333333333	0
bin	0.46666666666667	0
bin	0.5	0
scalar LoRaNetworkTest.nsRouter.ppp[0].queue dropPk:count 0
attr interpolationmode none
attr source dropPkByQueue
attr title "dropped packets, count"
scalar LoRaNetworkTest.nsRouter.ppp[0].queue dropPk:sum(packetBytes) 0
attr interpolationmode none
attr source dropPkByQueue
attr title "dropped packets, sum(packetBytes)"
scalar LoRaNetworkTest.nsRouter.ppp[0].queue rcvdPk:count 0
attr interpolationmode none
attr title "received packets, count"
scalar LoRaNetworkTest.nsRouter.ppp[0].queue rcvdPk:sum(packetBytes) 0
attr interpolationmode none
attr title "received packets, sum(packetBytes)"
scalar LoRaNetworkTest.nsRouter.ppp[0].ppp droppedPkBitError:count 0
attr interpolationmode none
attr source dropPkBitError
attr title "packets dropped/bit error, count"
scalar LoRaNetworkTest.nsRouter.ppp[0].ppp droppedPkBitError:sum(packetBytes) 0
attr interpolationmode none
attr source dropPkBitError
attr title "packets dropped/bit error, sum(packetBytes)"
scalar LoRaNetworkTest.nsRouter.ppp[0].ppp droppedPkIfaceDown:count 0
attr interpolationmode none
attr source dropPkIfaceDown
attr title "packets dropped/interface down, count"
scalar LoRaNetworkTest.nsRouter.ppp[0].ppp droppedPkIfaceDown:sum(packetBytes) 0
attr interpolationmode none
attr source dropPkIfaceDown
attr title "packets dropped/interface down, sum(packetBytes)"
scalar LoRaNetworkTest.nsRouter.ppp[0].ppp rxPkOk:count 9519
attr interpolationmode none
attr source rxPkOk
attr title "packets received OK, count"
scalar LoRaNetworkTest.nsRouter.ppp[0].ppp rxPkOk:sum(packetBytes) 409317
attr interpolationmode none
attr source rxPkOk
attr title "packets received OK, sum(packetBytes)"
scalar LoRaNetworkTest.nsRouter.ppp[0].ppp txState:timeavg nan
attr interpolationmode sample-hold
attr title "tx state, timeavg"
scalar LoRaNetworkTest.nsRouter.ppp[0].ppp rcvdPkFromHL:count 0
attr interpolationmode none
attr source packetReceivedFromUpper
attr title "packets received from higher layer, count"
scalar LoRaNetworkTest.nsRouter.ppp[0].ppp rcvdPkFromHL:sum(packetBytes) 0
attr interpolationmode none
attr source packetReceivedFromUpper
attr title "packets received from higher layer, sum(packetBytes)"
scalar LoRaNetworkTest.nsRouter.ppp[0].ppp passedUpPk:count 9519
attr interpolationmode none
attr source packetSentToUpper
attr title "packets passed to higher layer, count"
scalar LoRaNetworkTest.nsRouter.ppp[0].ppp passedUpPk:sum(packetBytes) 342684
attr interpolationmode none
attr source packetSentToUpper
attr title "packets passed to higher layer, sum(packetBytes)"
scalar LoRaNetworkTest.nsRouter.ppp[0].ppp txPk:count 0
attr interpolationmode none
attr source packetSentToLower
attr title "packets transmitted, count"
scalar LoRaNetworkTest.nsRouter.ppp[0].ppp txPk:sum(packetBytes) 0
attr interpolationmode none
attr source packetSentToLower
attr title "packets transmitted, sum(packetBytes)"

